/*---------------------------------------------------------------------------*\
| =========                 |                                                 |
| \\      /  F ield         | OpenFOAM: The Open Source CFD Toolbox           |
|  \\    /   O peration     | Version:  2212                                  |
|   \\  /    A nd           | Website:  www.openfoam.com                      |
|    \\/     M anipulation  |                                                 |
\*---------------------------------------------------------------------------*/
Build  : _66908158ae-20221220 OPENFOAM=2212 version=v2212
Arch   : "LSB;label=32;scalar=64"
Exec   : chtMultiRegionSimpleFoam
Date   : May 08 2023
Time   : 17:03:20
Host   : DESKTOP-RDCRTE6
PID    : 8119
I/O    : uncollated
Case   : /mnt/e/openfoamCase/hotRadiationRoom124
nProcs : 1
trapFpe: Floating point exception trapping enabled (FOAM_SIGFPE).
fileModificationChecking : Monitoring run-time modified files using timeStampMaster (fileModificationSkew 5, maxFileModificationPolls 20)
allowSystemOperations : Allowing user-supplied system call operations

// * * * * * * * * * * * * * * * * * * * * * * * * * * * * * * * * * * * * * //
Create time

Create fluid mesh for region atrium for time = 0

Create fluid mesh for region building for time = 0

Create fluid mesh for region domain1 for time = 0

Create solid mesh for region floor for time = 0

*** Reading fluid mesh thermophysical properties for region atrium

    Adding to thermoFluid

Selecting thermodynamics package 
{
    type            heRhoThermo;
    mixture         pureMixture;
    transport       const;
    thermo          hConst;
    equationOfState perfectGas;
    specie          specie;
    energy          sensibleEnthalpy;
}

    Adding to rhoFluid

    Adding to UFluid

    Adding to phiFluid

    Adding to hRefFluid

    Adding to ghFluid

    Adding to ghfFluid

    Adding to turbulence

Selecting turbulence model type RAS
Selecting RAS turbulence model kEpsilon
RAS
{
    RASModel        kEpsilon;
    turbulence      on;
    printCoeffs     on;
    Cmu             0.09;
    C1              1.44;
    C2              1.92;
    C3              0;
    sigmak          1;
    sigmaEps        1.3;
}

Selecting radiationModel fvDOM
Selecting absorptionEmissionModel multiBandAbsorptionEmission
Selecting scatterModel none
Selecting sootModel none
fvDOM : Allocated 36 rays with average orientation:
Sun direction : (0.7071068 0 -0.7071068)

Sun ray ID : 12

	I0 : dAve : 	(0.2105784 0.1388401 -0.01422886) : omega : 	0.2617994 : d : 	(0.7865661 0.6123724 0.07945931)
	I1 : dAve : 	(0.2352599 0.08263828 0.04057106) : omega : 	0.2617994 : d : 	(0.8641989 0.4355957 0.2518265)
	I2 : dAve : 	(0.2232095 0.04149569 0.1108058) : omega : 	0.2617994 : d : 	(0.8262957 0.3061862 0.4727424)
	I3 : dAve : 	(0.1776561 0.02643646 0.1776561) : omega : 	0.2617994 : d : 	(0.6830127 0.258819 0.6830127)
	I4 : dAve : 	(0.1108058 0.04149569 0.2232095) : omega : 	0.2617994 : d : 	(0.4727424 0.3061862 0.8262957)
	I5 : dAve : 	(0.04057106 0.08263828 0.2352599) : omega : 	0.2617994 : d : 	(0.2518265 0.4355957 0.8641989)
	I6 : dAve : 	(-0.01422886 0.1388401 0.2105784) : omega : 	0.2617994 : d : 	(0.07945931 0.6123724 0.7865661)
	I7 : dAve : 	(-0.03891031 0.1950419 0.1557785) : omega : 	0.2617994 : d : 	(0.001826484 0.7891491 0.6141989)
	I8 : dAve : 	(-0.02685993 0.2361845 0.0855437) : omega : 	0.2617994 : d : 	(0.03972966 0.9185587 0.393283)
	I9 : dAve : 	(0.0186934 0.2512437 0.0186934) : omega : 	0.2617994 : d : 	(0.1830127 0.9659258 0.1830127)
	I10 : dAve : 	(0.0855437 0.2361845 -0.02685993) : omega : 	0.2617994 : d : 	(0.393283 0.9185587 0.03972966)
	I11 : dAve : 	(0.1557785 0.1950419 -0.03891031) : omega : 	0.2617994 : d : 	(0.6141989 0.7891491 0.001826484)
	I12 : dAve : 	(0.3501441 -6.938894e-18 -0.3501441) : omega : 	0.5235988 : d : 	(0.7071068 -1.387779e-17 -0.7071068)
	I13 : dAve : 	(0.4270283 -0.1750721 -0.1794391) : omega : 	0.5235988 : d : 	(0.8623724 -0.3535534 -0.3623724)
	I14 : dAve : 	(0.3894906 -0.3032337 0.03934655) : omega : 	0.5235988 : d : 	(0.7865661 -0.6123724 0.07945931)
	I15 : dAve : 	(0.2475893 -0.3501441 0.2475893) : omega : 	0.5235988 : d : 	(0.5 -0.7071068 0.5)
	I16 : dAve : 	(0.03934655 -0.3032337 0.3894906) : omega : 	0.5235988 : d : 	(0.07945931 -0.6123724 0.7865661)
	I17 : dAve : 	(-0.1794391 -0.1750721 0.4270283) : omega : 	0.5235988 : d : 	(-0.3623724 -0.3535534 0.8623724)
	I18 : dAve : 	(-0.3501441 -9.020562e-17 0.3501441) : omega : 	0.5235988 : d : 	(-0.7071068 -1.804112e-16 0.7071068)
	I19 : dAve : 	(-0.4270283 0.1750721 0.1794391) : omega : 	0.5235988 : d : 	(-0.8623724 0.3535534 0.3623724)
	I20 : dAve : 	(-0.3894906 0.3032337 -0.03934655) : omega : 	0.5235988 : d : 	(-0.7865661 0.6123724 -0.07945931)
	I21 : dAve : 	(-0.2475893 0.3501441 -0.2475893) : omega : 	0.5235988 : d : 	(-0.5 0.7071068 -0.5)
	I22 : dAve : 	(-0.03934655 0.3032337 -0.3894906) : omega : 	0.5235988 : d : 	(-0.07945931 0.6123724 -0.7865661)
	I23 : dAve : 	(0.1794391 0.1750721 -0.4270283) : omega : 	0.5235988 : d : 	(0.3623724 0.3535534 -0.8623724)
	I24 : dAve : 	(0.01422886 -0.1388401 -0.2105784) : omega : 	0.2617994 : d : 	(-0.07945931 -0.6123724 -0.7865661)
	I25 : dAve : 	(0.03891031 -0.1950419 -0.1557785) : omega : 	0.2617994 : d : 	(-0.001826484 -0.7891491 -0.6141989)
	I26 : dAve : 	(0.02685993 -0.2361845 -0.0855437) : omega : 	0.2617994 : d : 	(-0.03972966 -0.9185587 -0.393283)
	I27 : dAve : 	(-0.0186934 -0.2512437 -0.0186934) : omega : 	0.2617994 : d : 	(-0.1830127 -0.9659258 -0.1830127)
	I28 : dAve : 	(-0.0855437 -0.2361845 0.02685993) : omega : 	0.2617994 : d : 	(-0.393283 -0.9185587 -0.03972966)
	I29 : dAve : 	(-0.1557785 -0.1950419 0.03891031) : omega : 	0.2617994 : d : 	(-0.6141989 -0.7891491 -0.001826484)
	I30 : dAve : 	(-0.2105784 -0.1388401 0.01422886) : omega : 	0.2617994 : d : 	(-0.7865661 -0.6123724 -0.07945931)
	I31 : dAve : 	(-0.2352599 -0.08263828 -0.04057106) : omega : 	0.2617994 : d : 	(-0.8641989 -0.4355957 -0.2518265)
	I32 : dAve : 	(-0.2232095 -0.04149569 -0.1108058) : omega : 	0.2617994 : d : 	(-0.8262957 -0.3061862 -0.4727424)
	I33 : dAve : 	(-0.1776561 -0.02643646 -0.1776561) : omega : 	0.2617994 : d : 	(-0.6830127 -0.258819 -0.6830127)
	I34 : dAve : 	(-0.1108058 -0.04149569 -0.2232095) : omega : 	0.2617994 : d : 	(-0.4727424 -0.3061862 -0.8262957)
	I35 : dAve : 	(-0.04057106 -0.08263828 -0.2352599) : omega : 	0.2617994 : d : 	(-0.2518265 -0.4355957 -0.8641989)
Total omega : 12.56637

    Adding MRF

No MRF models present

    Adding fvOptions

*** Reading fluid mesh thermophysical properties for region building

    Adding to thermoFluid

Selecting thermodynamics package 
{
    type            heRhoThermo;
    mixture         pureMixture;
    transport       const;
    thermo          hConst;
    equationOfState perfectGas;
    specie          specie;
    energy          sensibleEnthalpy;
}

    Adding to rhoFluid

    Adding to UFluid

    Adding to phiFluid

    Adding to hRefFluid

    Adding to ghFluid

    Adding to ghfFluid

    Adding to turbulence

Selecting turbulence model type RAS
Selecting RAS turbulence model kEpsilon
RAS
{
    RASModel        kEpsilon;
    turbulence      on;
    printCoeffs     on;
    Cmu             0.09;
    C1              1.44;
    C2              1.92;
    C3              0;
    sigmak          1;
    sigmaEps        1.3;
}

Selecting radiationModel fvDOM
Selecting absorptionEmissionModel constantAbsorptionEmission
Selecting scatterModel none
Selecting sootModel none
fvDOM : Allocated 60 rays with average orientation:
	I0 : dAve : 	(0.01023501 0.03819757 0.09044946) : omega : 	0.09999847 : d : 	(0.07997948 0.2984875 0.9510565)
	I1 : dAve : 	(0.02796256 0.02796256 0.09044946) : omega : 	0.09999847 : d : 	(0.218508 0.218508 0.9510565)
	I2 : dAve : 	(0.03819757 0.01023501 0.09044946) : omega : 	0.09999847 : d : 	(0.2984875 0.07997948 0.9510565)
	I3 : dAve : 	(0.03819757 -0.01023501 0.09044946) : omega : 	0.09999847 : d : 	(0.2984875 -0.07997948 0.9510565)
	I4 : dAve : 	(0.02796256 -0.02796256 0.09044946) : omega : 	0.09999847 : d : 	(0.218508 -0.218508 0.9510565)
	I5 : dAve : 	(0.01023501 -0.03819757 0.09044946) : omega : 	0.09999847 : d : 	(0.07997948 -0.2984875 0.9510565)
	I6 : dAve : 	(-0.01023501 -0.03819757 0.09044946) : omega : 	0.09999847 : d : 	(-0.07997948 -0.2984875 0.9510565)
	I7 : dAve : 	(-0.02796256 -0.02796256 0.09044946) : omega : 	0.09999847 : d : 	(-0.218508 -0.218508 0.9510565)
	I8 : dAve : 	(-0.03819757 -0.01023501 0.09044946) : omega : 	0.09999847 : d : 	(-0.2984875 -0.07997948 0.9510565)
	I9 : dAve : 	(-0.03819757 0.01023501 0.09044946) : omega : 	0.09999847 : d : 	(-0.2984875 0.07997948 0.9510565)
	I10 : dAve : 	(-0.02796256 0.02796256 0.09044946) : omega : 	0.09999847 : d : 	(-0.218508 0.218508 0.9510565)
	I11 : dAve : 	(-0.01023501 0.03819757 0.09044946) : omega : 	0.09999847 : d : 	(-0.07997948 0.2984875 0.9510565)
	I12 : dAve : 	(0.05425664 0.2024885 0.1463503) : omega : 	0.2617994 : d : 	(0.209389 0.7814504 0.5877853)
	I13 : dAve : 	(0.1482319 0.1482319 0.1463503) : omega : 	0.2617994 : d : 	(0.5720614 0.5720614 0.5877853)
	I14 : dAve : 	(0.2024885 0.05425664 0.1463503) : omega : 	0.2617994 : d : 	(0.7814504 0.209389 0.5877853)
	I15 : dAve : 	(0.2024885 -0.05425664 0.1463503) : omega : 	0.2617994 : d : 	(0.7814504 -0.209389 0.5877853)
	I16 : dAve : 	(0.1482319 -0.1482319 0.1463503) : omega : 	0.2617994 : d : 	(0.5720614 -0.5720614 0.5877853)
	I17 : dAve : 	(0.05425664 -0.2024885 0.1463503) : omega : 	0.2617994 : d : 	(0.209389 -0.7814504 0.5877853)
	I18 : dAve : 	(-0.05425664 -0.2024885 0.1463503) : omega : 	0.2617994 : d : 	(-0.209389 -0.7814504 0.5877853)
	I19 : dAve : 	(-0.1482319 -0.1482319 0.1463503) : omega : 	0.2617994 : d : 	(-0.5720614 -0.5720614 0.5877853)
	I20 : dAve : 	(-0.2024885 -0.05425664 0.1463503) : omega : 	0.2617994 : d : 	(-0.7814504 -0.209389 0.5877853)
	I21 : dAve : 	(-0.2024885 0.05425664 0.1463503) : omega : 	0.2617994 : d : 	(-0.7814504 0.209389 0.5877853)
	I22 : dAve : 	(-0.1482319 0.1482319 0.1463503) : omega : 	0.2617994 : d : 	(-0.5720614 0.5720614 0.5877853)
	I23 : dAve : 	(-0.05425664 0.2024885 0.1463503) : omega : 	0.2617994 : d : 	(-0.209389 0.7814504 0.5877853)
	I24 : dAve : 	(0.08146351 0.3040259 1.884509e-17) : omega : 	0.3236018 : d : 	(0.258819 0.9659258 6.123234e-17)
	I25 : dAve : 	(0.2225624 0.2225624 1.884509e-17) : omega : 	0.3236018 : d : 	(0.7071068 0.7071068 6.123234e-17)
	I26 : dAve : 	(0.3040259 0.08146351 1.884509e-17) : omega : 	0.3236018 : d : 	(0.9659258 0.258819 6.123234e-17)
	I27 : dAve : 	(0.3040259 -0.08146351 1.884509e-17) : omega : 	0.3236018 : d : 	(0.9659258 -0.258819 6.123234e-17)
	I28 : dAve : 	(0.2225624 -0.2225624 1.884509e-17) : omega : 	0.3236018 : d : 	(0.7071068 -0.7071068 6.123234e-17)
	I29 : dAve : 	(0.08146351 -0.3040259 1.884509e-17) : omega : 	0.3236018 : d : 	(0.258819 -0.9659258 6.123234e-17)
	I30 : dAve : 	(-0.08146351 -0.3040259 1.884509e-17) : omega : 	0.3236018 : d : 	(-0.258819 -0.9659258 6.123234e-17)
	I31 : dAve : 	(-0.2225624 -0.2225624 1.884509e-17) : omega : 	0.3236018 : d : 	(-0.7071068 -0.7071068 6.123234e-17)
	I32 : dAve : 	(-0.3040259 -0.08146351 1.884509e-17) : omega : 	0.3236018 : d : 	(-0.9659258 -0.258819 6.123234e-17)
	I33 : dAve : 	(-0.3040259 0.08146351 1.884509e-17) : omega : 	0.3236018 : d : 	(-0.9659258 0.258819 6.123234e-17)
	I34 : dAve : 	(-0.2225624 0.2225624 1.884509e-17) : omega : 	0.3236018 : d : 	(-0.7071068 0.7071068 6.123234e-17)
	I35 : dAve : 	(-0.08146351 0.3040259 1.884509e-17) : omega : 	0.3236018 : d : 	(-0.258819 0.9659258 6.123234e-17)
	I36 : dAve : 	(0.05425664 0.2024885 -0.1463503) : omega : 	0.2617994 : d : 	(0.209389 0.7814504 -0.5877853)
	I37 : dAve : 	(0.1482319 0.1482319 -0.1463503) : omega : 	0.2617994 : d : 	(0.5720614 0.5720614 -0.5877853)
	I38 : dAve : 	(0.2024885 0.05425664 -0.1463503) : omega : 	0.2617994 : d : 	(0.7814504 0.209389 -0.5877853)
	I39 : dAve : 	(0.2024885 -0.05425664 -0.1463503) : omega : 	0.2617994 : d : 	(0.7814504 -0.209389 -0.5877853)
	I40 : dAve : 	(0.1482319 -0.1482319 -0.1463503) : omega : 	0.2617994 : d : 	(0.5720614 -0.5720614 -0.5877853)
	I41 : dAve : 	(0.05425664 -0.2024885 -0.1463503) : omega : 	0.2617994 : d : 	(0.209389 -0.7814504 -0.5877853)
	I42 : dAve : 	(-0.05425664 -0.2024885 -0.1463503) : omega : 	0.2617994 : d : 	(-0.209389 -0.7814504 -0.5877853)
	I43 : dAve : 	(-0.1482319 -0.1482319 -0.1463503) : omega : 	0.2617994 : d : 	(-0.5720614 -0.5720614 -0.5877853)
	I44 : dAve : 	(-0.2024885 -0.05425664 -0.1463503) : omega : 	0.2617994 : d : 	(-0.7814504 -0.209389 -0.5877853)
	I45 : dAve : 	(-0.2024885 0.05425664 -0.1463503) : omega : 	0.2617994 : d : 	(-0.7814504 0.209389 -0.5877853)
	I46 : dAve : 	(-0.1482319 0.1482319 -0.1463503) : omega : 	0.2617994 : d : 	(-0.5720614 0.5720614 -0.5877853)
	I47 : dAve : 	(-0.05425664 0.2024885 -0.1463503) : omega : 	0.2617994 : d : 	(-0.209389 0.7814504 -0.5877853)
	I48 : dAve : 	(0.01023501 0.03819757 -0.09044946) : omega : 	0.09999847 : d : 	(0.07997948 0.2984875 -0.9510565)
	I49 : dAve : 	(0.02796256 0.02796256 -0.09044946) : omega : 	0.09999847 : d : 	(0.218508 0.218508 -0.9510565)
	I50 : dAve : 	(0.03819757 0.01023501 -0.09044946) : omega : 	0.09999847 : d : 	(0.2984875 0.07997948 -0.9510565)
	I51 : dAve : 	(0.03819757 -0.01023501 -0.09044946) : omega : 	0.09999847 : d : 	(0.2984875 -0.07997948 -0.9510565)
	I52 : dAve : 	(0.02796256 -0.02796256 -0.09044946) : omega : 	0.09999847 : d : 	(0.218508 -0.218508 -0.9510565)
	I53 : dAve : 	(0.01023501 -0.03819757 -0.09044946) : omega : 	0.09999847 : d : 	(0.07997948 -0.2984875 -0.9510565)
	I54 : dAve : 	(-0.01023501 -0.03819757 -0.09044946) : omega : 	0.09999847 : d : 	(-0.07997948 -0.2984875 -0.9510565)
	I55 : dAve : 	(-0.02796256 -0.02796256 -0.09044946) : omega : 	0.09999847 : d : 	(-0.218508 -0.218508 -0.9510565)
	I56 : dAve : 	(-0.03819757 -0.01023501 -0.09044946) : omega : 	0.09999847 : d : 	(-0.2984875 -0.07997948 -0.9510565)
	I57 : dAve : 	(-0.03819757 0.01023501 -0.09044946) : omega : 	0.09999847 : d : 	(-0.2984875 0.07997948 -0.9510565)
	I58 : dAve : 	(-0.02796256 0.02796256 -0.09044946) : omega : 	0.09999847 : d : 	(-0.218508 0.218508 -0.9510565)
	I59 : dAve : 	(-0.01023501 0.03819757 -0.09044946) : omega : 	0.09999847 : d : 	(-0.07997948 0.2984875 -0.9510565)
Total omega : 12.56637

    Adding MRF

No MRF models present

    Adding fvOptions

*** Reading fluid mesh thermophysical properties for region domain1

    Adding to thermoFluid

Selecting thermodynamics package 
{
    type            heRhoThermo;
    mixture         pureMixture;
    transport       const;
    thermo          hConst;
    equationOfState perfectGas;
    specie          specie;
    energy          sensibleEnthalpy;
}

    Adding to rhoFluid

    Adding to UFluid

    Adding to phiFluid

    Adding to hRefFluid

    Adding to ghFluid

    Adding to ghfFluid

    Adding to turbulence

Selecting turbulence model type RAS
Selecting RAS turbulence model kEpsilon
RAS
{
    RASModel        kEpsilon;
    turbulence      on;
    printCoeffs     on;
    Cmu             0.09;
    C1              1.44;
    C2              1.92;
    C3              0;
    sigmak          1;
    sigmaEps        1.3;
}

Selecting radiationModel fvDOM
Selecting absorptionEmissionModel multiBandAbsorptionEmission
Selecting scatterModel none
Selecting sootModel none
fvDOM : Allocated 36 rays with average orientation:
Sun direction : (0.7071068 0 -0.7071068)

Sun ray ID : 12

	I0 : dAve : 	(0.2105784 0.1388401 -0.01422886) : omega : 	0.2617994 : d : 	(0.7865661 0.6123724 0.07945931)
	I1 : dAve : 	(0.2352599 0.08263828 0.04057106) : omega : 	0.2617994 : d : 	(0.8641989 0.4355957 0.2518265)
	I2 : dAve : 	(0.2232095 0.04149569 0.1108058) : omega : 	0.2617994 : d : 	(0.8262957 0.3061862 0.4727424)
	I3 : dAve : 	(0.1776561 0.02643646 0.1776561) : omega : 	0.2617994 : d : 	(0.6830127 0.258819 0.6830127)
	I4 : dAve : 	(0.1108058 0.04149569 0.2232095) : omega : 	0.2617994 : d : 	(0.4727424 0.3061862 0.8262957)
	I5 : dAve : 	(0.04057106 0.08263828 0.2352599) : omega : 	0.2617994 : d : 	(0.2518265 0.4355957 0.8641989)
	I6 : dAve : 	(-0.01422886 0.1388401 0.2105784) : omega : 	0.2617994 : d : 	(0.07945931 0.6123724 0.7865661)
	I7 : dAve : 	(-0.03891031 0.1950419 0.1557785) : omega : 	0.2617994 : d : 	(0.001826484 0.7891491 0.6141989)
	I8 : dAve : 	(-0.02685993 0.2361845 0.0855437) : omega : 	0.2617994 : d : 	(0.03972966 0.9185587 0.393283)
	I9 : dAve : 	(0.0186934 0.2512437 0.0186934) : omega : 	0.2617994 : d : 	(0.1830127 0.9659258 0.1830127)
	I10 : dAve : 	(0.0855437 0.2361845 -0.02685993) : omega : 	0.2617994 : d : 	(0.393283 0.9185587 0.03972966)
	I11 : dAve : 	(0.1557785 0.1950419 -0.03891031) : omega : 	0.2617994 : d : 	(0.6141989 0.7891491 0.001826484)
	I12 : dAve : 	(0.3501441 -6.938894e-18 -0.3501441) : omega : 	0.5235988 : d : 	(0.7071068 -1.387779e-17 -0.7071068)
	I13 : dAve : 	(0.4270283 -0.1750721 -0.1794391) : omega : 	0.5235988 : d : 	(0.8623724 -0.3535534 -0.3623724)
	I14 : dAve : 	(0.3894906 -0.3032337 0.03934655) : omega : 	0.5235988 : d : 	(0.7865661 -0.6123724 0.07945931)
	I15 : dAve : 	(0.2475893 -0.3501441 0.2475893) : omega : 	0.5235988 : d : 	(0.5 -0.7071068 0.5)
	I16 : dAve : 	(0.03934655 -0.3032337 0.3894906) : omega : 	0.5235988 : d : 	(0.07945931 -0.6123724 0.7865661)
	I17 : dAve : 	(-0.1794391 -0.1750721 0.4270283) : omega : 	0.5235988 : d : 	(-0.3623724 -0.3535534 0.8623724)
	I18 : dAve : 	(-0.3501441 -9.020562e-17 0.3501441) : omega : 	0.5235988 : d : 	(-0.7071068 -1.804112e-16 0.7071068)
	I19 : dAve : 	(-0.4270283 0.1750721 0.1794391) : omega : 	0.5235988 : d : 	(-0.8623724 0.3535534 0.3623724)
	I20 : dAve : 	(-0.3894906 0.3032337 -0.03934655) : omega : 	0.5235988 : d : 	(-0.7865661 0.6123724 -0.07945931)
	I21 : dAve : 	(-0.2475893 0.3501441 -0.2475893) : omega : 	0.5235988 : d : 	(-0.5 0.7071068 -0.5)
	I22 : dAve : 	(-0.03934655 0.3032337 -0.3894906) : omega : 	0.5235988 : d : 	(-0.07945931 0.6123724 -0.7865661)
	I23 : dAve : 	(0.1794391 0.1750721 -0.4270283) : omega : 	0.5235988 : d : 	(0.3623724 0.3535534 -0.8623724)
	I24 : dAve : 	(0.01422886 -0.1388401 -0.2105784) : omega : 	0.2617994 : d : 	(-0.07945931 -0.6123724 -0.7865661)
	I25 : dAve : 	(0.03891031 -0.1950419 -0.1557785) : omega : 	0.2617994 : d : 	(-0.001826484 -0.7891491 -0.6141989)
	I26 : dAve : 	(0.02685993 -0.2361845 -0.0855437) : omega : 	0.2617994 : d : 	(-0.03972966 -0.9185587 -0.393283)
	I27 : dAve : 	(-0.0186934 -0.2512437 -0.0186934) : omega : 	0.2617994 : d : 	(-0.1830127 -0.9659258 -0.1830127)
	I28 : dAve : 	(-0.0855437 -0.2361845 0.02685993) : omega : 	0.2617994 : d : 	(-0.393283 -0.9185587 -0.03972966)
	I29 : dAve : 	(-0.1557785 -0.1950419 0.03891031) : omega : 	0.2617994 : d : 	(-0.6141989 -0.7891491 -0.001826484)
	I30 : dAve : 	(-0.2105784 -0.1388401 0.01422886) : omega : 	0.2617994 : d : 	(-0.7865661 -0.6123724 -0.07945931)
	I31 : dAve : 	(-0.2352599 -0.08263828 -0.04057106) : omega : 	0.2617994 : d : 	(-0.8641989 -0.4355957 -0.2518265)
	I32 : dAve : 	(-0.2232095 -0.04149569 -0.1108058) : omega : 	0.2617994 : d : 	(-0.8262957 -0.3061862 -0.4727424)
	I33 : dAve : 	(-0.1776561 -0.02643646 -0.1776561) : omega : 	0.2617994 : d : 	(-0.6830127 -0.258819 -0.6830127)
	I34 : dAve : 	(-0.1108058 -0.04149569 -0.2232095) : omega : 	0.2617994 : d : 	(-0.4727424 -0.3061862 -0.8262957)
	I35 : dAve : 	(-0.04057106 -0.08263828 -0.2352599) : omega : 	0.2617994 : d : 	(-0.2518265 -0.4355957 -0.8641989)
Total omega : 12.56637

    Adding MRF

No MRF models present

    Adding fvOptions

Creating finite volume options from "constant/fvOptions"

Selecting finite volume options type limitTemperature
    Source: limitT
    - selecting all cells
    - selected 1046092 cell(s) with volume 1.161024e+08
*** Reading solid mesh thermophysical properties for region floor

    Adding to thermos

Selecting thermodynamics package 
{
    type            heSolidThermo;
    mixture         pureMixture;
    transport       constIso;
    thermo          hConst;
    equationOfState rhoConst;
    specie          specie;
    energy          sensibleEnthalpy;
}

    Adding to radiations

Selecting radiationModel none
    Adding fvOptions

Time = 1


Solving for fluid region atrium
DILUPBiCGStab:  Solving for Ux, Initial residual = 1, Final residual = 0.01525768, No Iterations 1
DILUPBiCGStab:  Solving for Uy, Initial residual = 1, Final residual = 0.01922187, No Iterations 1
DILUPBiCGStab:  Solving for Uz, Initial residual = 1, Final residual = 0.01443039, No Iterations 1
DILUPBiCGStab:  Solving for h, Initial residual = 1, Final residual = 0.06819134, No Iterations 1
Radiation solver iter: 0
Selecting boundary radiation Model: transparent
Selecting boundary radiation Model: opaqueDiffusive
Selecting boundary radiation Model: opaqueReflective
Selecting boundary radiation Model: opaqueReflective
GAMG:  Solving for ILambda_0_0, Initial residual = 1, Final residual = 0.00631406, No Iterations 1
GAMG:  Solving for ILambda_1_0, Initial residual = 1, Final residual = 0.008433809, No Iterations 1
GAMG:  Solving for ILambda_2_0, Initial residual = 1, Final residual = 0.01060998, No Iterations 1
GAMG:  Solving for ILambda_3_0, Initial residual = 1, Final residual = 0.01036511, No Iterations 1
GAMG:  Solving for ILambda_4_0, Initial residual = 1, Final residual = 0.00902103, No Iterations 1
GAMG:  Solving for ILambda_5_0, Initial residual = 1, Final residual = 0.007656537, No Iterations 1
GAMG:  Solving for ILambda_6_0, Initial residual = 1, Final residual = 0.006667378, No Iterations 1
GAMG:  Solving for ILambda_7_0, Initial residual = 1, Final residual = 0.006253786, No Iterations 1
GAMG:  Solving for ILambda_8_0, Initial residual = 1, Final residual = 0.004882032, No Iterations 1
GAMG:  Solving for ILambda_9_0, Initial residual = 1, Final residual = 0.003481181, No Iterations 1
GAMG:  Solving for ILambda_10_0, Initial residual = 1, Final residual = 0.004837546, No Iterations 1
GAMG:  Solving for ILambda_11_0, Initial residual = 1, Final residual = 0.006096201, No Iterations 1
GAMG:  Solving for ILambda_12_0, Initial residual = 1, Final residual = 0.009790454, No Iterations 1
GAMG:  Solving for ILambda_13_0, Initial residual = 1, Final residual = 0.0114675, No Iterations 1
GAMG:  Solving for ILambda_14_0, Initial residual = 1, Final residual = 0.00925524, No Iterations 1
GAMG:  Solving for ILambda_15_0, Initial residual = 1, Final residual = 0.01012928, No Iterations 1
GAMG:  Solving for ILambda_16_0, Initial residual = 1, Final residual = 0.009299997, No Iterations 1
GAMG:  Solving for ILambda_17_0, Initial residual = 1, Final residual = 0.01123864, No Iterations 1
GAMG:  Solving for ILambda_18_0, Initial residual = 1, Final residual = 0.01306996, No Iterations 1
GAMG:  Solving for ILambda_19_0, Initial residual = 1, Final residual = 0.01016507, No Iterations 1
GAMG:  Solving for ILambda_20_0, Initial residual = 1, Final residual = 0.006618805, No Iterations 1
GAMG:  Solving for ILambda_21_0, Initial residual = 1, Final residual = 0.006873767, No Iterations 1
GAMG:  Solving for ILambda_22_0, Initial residual = 1, Final residual = 0.005753718, No Iterations 1
GAMG:  Solving for ILambda_23_0, Initial residual = 1, Final residual = 0.006896354, No Iterations 1
GAMG:  Solving for ILambda_24_0, Initial residual = 1, Final residual = 0.009671538, No Iterations 1
GAMG:  Solving for ILambda_25_0, Initial residual = 1, Final residual = 0.00943949, No Iterations 1
GAMG:  Solving for ILambda_26_0, Initial residual = 1, Final residual = 0.008838155, No Iterations 1
GAMG:  Solving for ILambda_27_0, Initial residual = 1, Final residual = 0.008472513, No Iterations 1
GAMG:  Solving for ILambda_28_0, Initial residual = 1, Final residual = 0.009336791, No Iterations 1
GAMG:  Solving for ILambda_29_0, Initial residual = 1, Final residual = 0.01076123, No Iterations 1
GAMG:  Solving for ILambda_30_0, Initial residual = 1, Final residual = 0.01218619, No Iterations 1
GAMG:  Solving for ILambda_31_0, Initial residual = 1, Final residual = 0.01248786, No Iterations 1
GAMG:  Solving for ILambda_32_0, Initial residual = 1, Final residual = 0.01189916, No Iterations 1
GAMG:  Solving for ILambda_33_0, Initial residual = 1, Final residual = 0.01145657, No Iterations 1
GAMG:  Solving for ILambda_34_0, Initial residual = 1, Final residual = 0.0103556, No Iterations 1
GAMG:  Solving for ILambda_35_0, Initial residual = 1, Final residual = 0.009701224, No Iterations 1
Radiation solver iter: 1
GAMG:  Solving for ILambda_0_0, Initial residual = 0.2363198, Final residual = 0.001040785, No Iterations 1
GAMG:  Solving for ILambda_1_0, Initial residual = 0.2521491, Final residual = 0.001972401, No Iterations 1
GAMG:  Solving for ILambda_2_0, Initial residual = 0.2503401, Final residual = 0.002137576, No Iterations 1
GAMG:  Solving for ILambda_3_0, Initial residual = 0.2473102, Final residual = 0.001885986, No Iterations 1
GAMG:  Solving for ILambda_4_0, Initial residual = 0.250329, Final residual = 0.00154548, No Iterations 1
GAMG:  Solving for ILambda_5_0, Initial residual = 0.2471281, Final residual = 0.001279725, No Iterations 1
GAMG:  Solving for ILambda_6_0, Initial residual = 0.2458151, Final residual = 0.001194501, No Iterations 1
GAMG:  Solving for ILambda_7_0, Initial residual = 0.249408, Final residual = 0.001159082, No Iterations 1
GAMG:  Solving for ILambda_8_0, Initial residual = 0.2682826, Final residual = 0.001012758, No Iterations 1
GAMG:  Solving for ILambda_9_0, Initial residual = 0.2843083, Final residual = 0.0006555745, No Iterations 1
GAMG:  Solving for ILambda_10_0, Initial residual = 0.25747, Final residual = 0.0007177957, No Iterations 1
GAMG:  Solving for ILambda_11_0, Initial residual = 0.2490425, Final residual = 0.001012733, No Iterations 1
GAMG:  Solving for ILambda_12_0, Initial residual = 0.2264488, Final residual = 0.001322165, No Iterations 1
GAMG:  Solving for ILambda_13_0, Initial residual = 0.2362431, Final residual = 0.001664709, No Iterations 1
GAMG:  Solving for ILambda_14_0, Initial residual = 0.2549098, Final residual = 0.001587395, No Iterations 1
GAMG:  Solving for ILambda_15_0, Initial residual = 0.2531957, Final residual = 0.001856157, No Iterations 1
GAMG:  Solving for ILambda_16_0, Initial residual = 0.2423645, Final residual = 0.001407832, No Iterations 1
GAMG:  Solving for ILambda_17_0, Initial residual = 0.248896, Final residual = 0.002000097, No Iterations 1
GAMG:  Solving for ILambda_18_0, Initial residual = 0.2292234, Final residual = 0.001952672, No Iterations 1
GAMG:  Solving for ILambda_19_0, Initial residual = 0.2540156, Final residual = 0.002194473, No Iterations 1
GAMG:  Solving for ILambda_20_0, Initial residual = 0.2581281, Final residual = 0.001626751, No Iterations 1
GAMG:  Solving for ILambda_21_0, Initial residual = 0.237493, Final residual = 0.001108956, No Iterations 1
GAMG:  Solving for ILambda_22_0, Initial residual = 0.2471314, Final residual = 0.0008390937, No Iterations 1
GAMG:  Solving for ILambda_23_0, Initial residual = 0.2435398, Final residual = 0.0009592887, No Iterations 1
GAMG:  Solving for ILambda_24_0, Initial residual = 0.2425232, Final residual = 0.001278585, No Iterations 1
GAMG:  Solving for ILambda_25_0, Initial residual = 0.2457994, Final residual = 0.001227439, No Iterations 1
GAMG:  Solving for ILambda_26_0, Initial residual = 0.2588501, Final residual = 0.001220456, No Iterations 1
GAMG:  Solving for ILambda_27_0, Initial residual = 0.2766752, Final residual = 0.001035751, No Iterations 1
GAMG:  Solving for ILambda_28_0, Initial residual = 0.2643963, Final residual = 0.001311259, No Iterations 1
GAMG:  Solving for ILambda_29_0, Initial residual = 0.2568483, Final residual = 0.001761718, No Iterations 1
GAMG:  Solving for ILambda_30_0, Initial residual = 0.2549996, Final residual = 0.002083512, No Iterations 1
GAMG:  Solving for ILambda_31_0, Initial residual = 0.2687145, Final residual = 0.002447215, No Iterations 1
GAMG:  Solving for ILambda_32_0, Initial residual = 0.2534766, Final residual = 0.001914398, No Iterations 1
GAMG:  Solving for ILambda_33_0, Initial residual = 0.2418617, Final residual = 0.001555952, No Iterations 1
GAMG:  Solving for ILambda_34_0, Initial residual = 0.253565, Final residual = 0.001762052, No Iterations 1
GAMG:  Solving for ILambda_35_0, Initial residual = 0.2512525, Final residual = 0.001579862, No Iterations 1
Radiation solver iter: 2
GAMG:  Solving for ILambda_0_0, Initial residual = 0.1510989, Final residual = 0.0007057728, No Iterations 1
GAMG:  Solving for ILambda_1_0, Initial residual = 0.1431713, Final residual = 0.0008358124, No Iterations 1
GAMG:  Solving for ILambda_2_0, Initial residual = 0.1393624, Final residual = 0.0009326749, No Iterations 1
GAMG:  Solving for ILambda_3_0, Initial residual = 0.1424161, Final residual = 0.001296924, No Iterations 1
GAMG:  Solving for ILambda_4_0, Initial residual = 0.1436308, Final residual = 0.001152559, No Iterations 1
GAMG:  Solving for ILambda_5_0, Initial residual = 0.1455213, Final residual = 0.0008860636, No Iterations 1
GAMG:  Solving for ILambda_6_0, Initial residual = 0.1544452, Final residual = 0.0007819683, No Iterations 1
GAMG:  Solving for ILambda_7_0, Initial residual = 0.1593375, Final residual = 0.0006316327, No Iterations 1
GAMG:  Solving for ILambda_8_0, Initial residual = 0.1764193, Final residual = 0.0004209433, No Iterations 1
GAMG:  Solving for ILambda_9_0, Initial residual = 0.2004568, Final residual = 0.0004670795, No Iterations 1
GAMG:  Solving for ILambda_10_0, Initial residual = 0.1750539, Final residual = 0.0006225217, No Iterations 1
GAMG:  Solving for ILambda_11_0, Initial residual = 0.1615194, Final residual = 0.0007403109, No Iterations 1
GAMG:  Solving for ILambda_12_0, Initial residual = 0.1383689, Final residual = 0.001541254, No Iterations 1
GAMG:  Solving for ILambda_13_0, Initial residual = 0.1423444, Final residual = 0.0008037175, No Iterations 1
GAMG:  Solving for ILambda_14_0, Initial residual = 0.1569454, Final residual = 0.001107316, No Iterations 1
GAMG:  Solving for ILambda_15_0, Initial residual = 0.1504076, Final residual = 0.0008250176, No Iterations 1
GAMG:  Solving for ILambda_16_0, Initial residual = 0.1556648, Final residual = 0.001007495, No Iterations 1
GAMG:  Solving for ILambda_17_0, Initial residual = 0.1432854, Final residual = 0.001114596, No Iterations 1
GAMG:  Solving for ILambda_18_0, Initial residual = 0.1417658, Final residual = 0.001395616, No Iterations 1
GAMG:  Solving for ILambda_19_0, Initial residual = 0.139089, Final residual = 0.0007179496, No Iterations 1
GAMG:  Solving for ILambda_20_0, Initial residual = 0.1516577, Final residual = 0.0007506081, No Iterations 1
GAMG:  Solving for ILambda_21_0, Initial residual = 0.1489067, Final residual = 0.0005467612, No Iterations 1
GAMG:  Solving for ILambda_22_0, Initial residual = 0.1574857, Final residual = 0.0007166115, No Iterations 1
GAMG:  Solving for ILambda_23_0, Initial residual = 0.1440038, Final residual = 0.0008347097, No Iterations 1
GAMG:  Solving for ILambda_24_0, Initial residual = 0.1549431, Final residual = 0.001154749, No Iterations 1
GAMG:  Solving for ILambda_25_0, Initial residual = 0.15983, Final residual = 0.001081102, No Iterations 1
GAMG:  Solving for ILambda_26_0, Initial residual = 0.1765852, Final residual = 0.001091807, No Iterations 1
GAMG:  Solving for ILambda_27_0, Initial residual = 0.1981472, Final residual = 0.001275138, No Iterations 1
GAMG:  Solving for ILambda_28_0, Initial residual = 0.1776053, Final residual = 0.001439488, No Iterations 1
GAMG:  Solving for ILambda_29_0, Initial residual = 0.1626978, Final residual = 0.001484432, No Iterations 1
GAMG:  Solving for ILambda_30_0, Initial residual = 0.1516204, Final residual = 0.001430642, No Iterations 1
GAMG:  Solving for ILambda_31_0, Initial residual = 0.1468023, Final residual = 0.001186958, No Iterations 1
GAMG:  Solving for ILambda_32_0, Initial residual = 0.1438853, Final residual = 0.00112453, No Iterations 1
GAMG:  Solving for ILambda_33_0, Initial residual = 0.1448673, Final residual = 0.001307689, No Iterations 1
GAMG:  Solving for ILambda_34_0, Initial residual = 0.1473105, Final residual = 0.001279023, No Iterations 1
GAMG:  Solving for ILambda_35_0, Initial residual = 0.1488141, Final residual = 0.001079094, No Iterations 1
Radiation solver iter: 3
GAMG:  Solving for ILambda_0_0, Initial residual = 0.125242, Final residual = 0.0005585065, No Iterations 1
GAMG:  Solving for ILambda_1_0, Initial residual = 0.1152358, Final residual = 0.0004682811, No Iterations 1
GAMG:  Solving for ILambda_2_0, Initial residual = 0.1096743, Final residual = 0.0009097736, No Iterations 1
GAMG:  Solving for ILambda_3_0, Initial residual = 0.1094799, Final residual = 0.00098329, No Iterations 1
GAMG:  Solving for ILambda_4_0, Initial residual = 0.1140233, Final residual = 0.000767361, No Iterations 1
GAMG:  Solving for ILambda_5_0, Initial residual = 0.1202286, Final residual = 0.0006174956, No Iterations 1
GAMG:  Solving for ILambda_6_0, Initial residual = 0.1299053, Final residual = 0.0005837887, No Iterations 1
GAMG:  Solving for ILambda_7_0, Initial residual = 0.1351327, Final residual = 0.0006328134, No Iterations 1
GAMG:  Solving for ILambda_8_0, Initial residual = 0.1656085, Final residual = 0.0005440747, No Iterations 1
GAMG:  Solving for ILambda_9_0, Initial residual = 0.1971479, Final residual = 0.000394239, No Iterations 1
GAMG:  Solving for ILambda_10_0, Initial residual = 0.1611622, Final residual = 0.0005523083, No Iterations 1
GAMG:  Solving for ILambda_11_0, Initial residual = 0.1348148, Final residual = 0.0006351156, No Iterations 1
GAMG:  Solving for ILambda_12_0, Initial residual = 0.1088492, Final residual = 0.001009448, No Iterations 1
GAMG:  Solving for ILambda_13_0, Initial residual = 0.1129131, Final residual = 0.0007962975, No Iterations 1
GAMG:  Solving for ILambda_14_0, Initial residual = 0.1262674, Final residual = 0.0007906964, No Iterations 1
GAMG:  Solving for ILambda_15_0, Initial residual = 0.1230291, Final residual = 0.0008526754, No Iterations 1
GAMG:  Solving for ILambda_16_0, Initial residual = 0.1315836, Final residual = 0.0008506159, No Iterations 1
GAMG:  Solving for ILambda_17_0, Initial residual = 0.1157015, Final residual = 0.0008966323, No Iterations 1
GAMG:  Solving for ILambda_18_0, Initial residual = 0.1104505, Final residual = 0.001079406, No Iterations 1
GAMG:  Solving for ILambda_19_0, Initial residual = 0.1090243, Final residual = 0.0006642444, No Iterations 1
GAMG:  Solving for ILambda_20_0, Initial residual = 0.1212264, Final residual = 0.0004456752, No Iterations 1
GAMG:  Solving for ILambda_21_0, Initial residual = 0.1231345, Final residual = 0.0005353218, No Iterations 1
GAMG:  Solving for ILambda_22_0, Initial residual = 0.1328667, Final residual = 0.0005139849, No Iterations 1
GAMG:  Solving for ILambda_23_0, Initial residual = 0.1170402, Final residual = 0.0005678251, No Iterations 1
GAMG:  Solving for ILambda_24_0, Initial residual = 0.1295604, Final residual = 0.0008376319, No Iterations 1
GAMG:  Solving for ILambda_25_0, Initial residual = 0.1358536, Final residual = 0.0008534231, No Iterations 1
GAMG:  Solving for ILambda_26_0, Initial residual = 0.1616692, Final residual = 0.0008508142, No Iterations 1
GAMG:  Solving for ILambda_27_0, Initial residual = 0.1927571, Final residual = 0.0007658277, No Iterations 1
GAMG:  Solving for ILambda_28_0, Initial residual = 0.1607097, Final residual = 0.0009589389, No Iterations 1
GAMG:  Solving for ILambda_29_0, Initial residual = 0.137459, Final residual = 0.001077207, No Iterations 1
GAMG:  Solving for ILambda_30_0, Initial residual = 0.126371, Final residual = 0.00100834, No Iterations 1
GAMG:  Solving for ILambda_31_0, Initial residual = 0.1166255, Final residual = 0.0006919061, No Iterations 1
GAMG:  Solving for ILambda_32_0, Initial residual = 0.1118618, Final residual = 0.0008402441, No Iterations 1
GAMG:  Solving for ILambda_33_0, Initial residual = 0.1123856, Final residual = 0.0009048249, No Iterations 1
GAMG:  Solving for ILambda_34_0, Initial residual = 0.1171417, Final residual = 0.0008228433, No Iterations 1
GAMG:  Solving for ILambda_35_0, Initial residual = 0.1220847, Final residual = 0.0007458738, No Iterations 1
Radiation solver iter: 4
GAMG:  Solving for ILambda_0_0, Initial residual = 0.1129339, Final residual = 0.0004869521, No Iterations 1
GAMG:  Solving for ILambda_1_0, Initial residual = 0.09939605, Final residual = 0.000417093, No Iterations 1
GAMG:  Solving for ILambda_2_0, Initial residual = 0.0920589, Final residual = 0.0007182294, No Iterations 1
GAMG:  Solving for ILambda_3_0, Initial residual = 0.0949409, Final residual = 0.0005948874, No Iterations 1
GAMG:  Solving for ILambda_4_0, Initial residual = 0.09598747, Final residual = 0.0004960924, No Iterations 1
GAMG:  Solving for ILambda_5_0, Initial residual = 0.10214, Final residual = 0.0004369971, No Iterations 1
GAMG:  Solving for ILambda_6_0, Initial residual = 0.1152586, Final residual = 0.0003996607, No Iterations 1
GAMG:  Solving for ILambda_7_0, Initial residual = 0.1281087, Final residual = 0.0004824478, No Iterations 1
GAMG:  Solving for ILambda_8_0, Initial residual = 0.1506644, Final residual = 0.0004806561, No Iterations 1
GAMG:  Solving for ILambda_9_0, Initial residual = 0.1818852, Final residual = 0.0003215133, No Iterations 1
GAMG:  Solving for ILambda_10_0, Initial residual = 0.1439094, Final residual = 0.0004286479, No Iterations 1
GAMG:  Solving for ILambda_11_0, Initial residual = 0.1251664, Final residual = 0.0005370366, No Iterations 1
GAMG:  Solving for ILambda_12_0, Initial residual = 0.08851131, Final residual = 0.000608679, No Iterations 1
GAMG:  Solving for ILambda_13_0, Initial residual = 0.09647641, Final residual = 0.0006116, No Iterations 1
GAMG:  Solving for ILambda_14_0, Initial residual = 0.1126446, Final residual = 0.0005722591, No Iterations 1
GAMG:  Solving for ILambda_15_0, Initial residual = 0.1115417, Final residual = 0.0006784669, No Iterations 1
GAMG:  Solving for ILambda_16_0, Initial residual = 0.1213387, Final residual = 0.0005708519, No Iterations 1
GAMG:  Solving for ILambda_17_0, Initial residual = 0.1014104, Final residual = 0.0006160873, No Iterations 1
GAMG:  Solving for ILambda_18_0, Initial residual = 0.09577423, Final residual = 0.0006764075, No Iterations 1
GAMG:  Solving for ILambda_19_0, Initial residual = 0.09418882, Final residual = 0.0005799994, No Iterations 1
GAMG:  Solving for ILambda_20_0, Initial residual = 0.1099916, Final residual = 0.0003943798, No Iterations 1
GAMG:  Solving for ILambda_21_0, Initial residual = 0.1126046, Final residual = 0.000426937, No Iterations 1
GAMG:  Solving for ILambda_22_0, Initial residual = 0.1213147, Final residual = 0.0003288419, No Iterations 1
GAMG:  Solving for ILambda_23_0, Initial residual = 0.100908, Final residual = 0.0003662482, No Iterations 1
GAMG:  Solving for ILambda_24_0, Initial residual = 0.1133331, Final residual = 0.000488935, No Iterations 1
GAMG:  Solving for ILambda_25_0, Initial residual = 0.1269304, Final residual = 0.0005348265, No Iterations 1
GAMG:  Solving for ILambda_26_0, Initial residual = 0.14974, Final residual = 0.0005631185, No Iterations 1
GAMG:  Solving for ILambda_27_0, Initial residual = 0.1765575, Final residual = 0.0004886361, No Iterations 1
GAMG:  Solving for ILambda_28_0, Initial residual = 0.14636, Final residual = 0.0006285621, No Iterations 1
GAMG:  Solving for ILambda_29_0, Initial residual = 0.1255253, Final residual = 0.0008066127, No Iterations 1
GAMG:  Solving for ILambda_30_0, Initial residual = 0.1136688, Final residual = 0.0007644698, No Iterations 1
GAMG:  Solving for ILambda_31_0, Initial residual = 0.1012243, Final residual = 0.0005312785, No Iterations 1
GAMG:  Solving for ILambda_32_0, Initial residual = 0.09456208, Final residual = 0.0005368107, No Iterations 1
GAMG:  Solving for ILambda_33_0, Initial residual = 0.09477839, Final residual = 0.0005026039, No Iterations 1
GAMG:  Solving for ILambda_34_0, Initial residual = 0.09658638, Final residual = 0.0004735465, No Iterations 1
GAMG:  Solving for ILambda_35_0, Initial residual = 0.1023862, Final residual = 0.0004954016, No Iterations 1
Radiation solver iter: 5
GAMG:  Solving for ILambda_0_0, Initial residual = 0.1043086, Final residual = 0.0004232025, No Iterations 1
GAMG:  Solving for ILambda_1_0, Initial residual = 0.08993764, Final residual = 0.0004322618, No Iterations 1
GAMG:  Solving for ILambda_2_0, Initial residual = 0.08266601, Final residual = 0.0005394712, No Iterations 1
GAMG:  Solving for ILambda_3_0, Initial residual = 0.08097583, Final residual = 0.0004443488, No Iterations 1
GAMG:  Solving for ILambda_4_0, Initial residual = 0.08430666, Final residual = 0.0004784879, No Iterations 1
GAMG:  Solving for ILambda_5_0, Initial residual = 0.09123922, Final residual = 0.0004229803, No Iterations 1
GAMG:  Solving for ILambda_6_0, Initial residual = 0.1061806, Final residual = 0.0003958955, No Iterations 1
GAMG:  Solving for ILambda_7_0, Initial residual = 0.117427, Final residual = 0.0003331226, No Iterations 1
GAMG:  Solving for ILambda_8_0, Initial residual = 0.1480153, Final residual = 0.0003654967, No Iterations 1
GAMG:  Solving for ILambda_9_0, Initial residual = 0.1779852, Final residual = 0.0002986817, No Iterations 1
GAMG:  Solving for ILambda_10_0, Initial residual = 0.1362249, Final residual = 0.0003339576, No Iterations 1
GAMG:  Solving for ILambda_11_0, Initial residual = 0.1124866, Final residual = 0.0004423651, No Iterations 1
GAMG:  Solving for ILambda_12_0, Initial residual = 0.07427534, Final residual = 0.0004903304, No Iterations 1
GAMG:  Solving for ILambda_13_0, Initial residual = 0.08592708, Final residual = 0.0004344143, No Iterations 1
GAMG:  Solving for ILambda_14_0, Initial residual = 0.1015381, Final residual = 0.0004701841, No Iterations 1
GAMG:  Solving for ILambda_15_0, Initial residual = 0.1039987, Final residual = 0.0005070574, No Iterations 1
GAMG:  Solving for ILambda_16_0, Initial residual = 0.1119238, Final residual = 0.0004623802, No Iterations 1
GAMG:  Solving for ILambda_17_0, Initial residual = 0.09118786, Final residual = 0.0005209204, No Iterations 1
GAMG:  Solving for ILambda_18_0, Initial residual = 0.08176518, Final residual = 0.0005259711, No Iterations 1
GAMG:  Solving for ILambda_19_0, Initial residual = 0.08312004, Final residual = 0.0004933578, No Iterations 1
GAMG:  Solving for ILambda_20_0, Initial residual = 0.09972034, Final residual = 0.0003756163, No Iterations 1
GAMG:  Solving for ILambda_21_0, Initial residual = 0.104722, Final residual = 0.0003091578, No Iterations 1
GAMG:  Solving for ILambda_22_0, Initial residual = 0.1135015, Final residual = 0.0002576421, No Iterations 1
GAMG:  Solving for ILambda_23_0, Initial residual = 0.09108815, Final residual = 0.0003178481, No Iterations 1
GAMG:  Solving for ILambda_24_0, Initial residual = 0.1051838, Final residual = 0.000357051, No Iterations 1
GAMG:  Solving for ILambda_25_0, Initial residual = 0.116732, Final residual = 0.0003388796, No Iterations 1
GAMG:  Solving for ILambda_26_0, Initial residual = 0.1450332, Final residual = 0.000442068, No Iterations 1
GAMG:  Solving for ILambda_27_0, Initial residual = 0.1746143, Final residual = 0.0005144059, No Iterations 1
GAMG:  Solving for ILambda_28_0, Initial residual = 0.1372282, Final residual = 0.0004877052, No Iterations 1
GAMG:  Solving for ILambda_29_0, Initial residual = 0.1150115, Final residual = 0.0006382908, No Iterations 1
GAMG:  Solving for ILambda_30_0, Initial residual = 0.1045166, Final residual = 0.000618444, No Iterations 1
GAMG:  Solving for ILambda_31_0, Initial residual = 0.09200684, Final residual = 0.0004650006, No Iterations 1
GAMG:  Solving for ILambda_32_0, Initial residual = 0.08362527, Final residual = 0.0003563416, No Iterations 1
GAMG:  Solving for ILambda_33_0, Initial residual = 0.08181882, Final residual = 0.0003222062, No Iterations 1
GAMG:  Solving for ILambda_34_0, Initial residual = 0.08665155, Final residual = 0.000367393, No Iterations 1
GAMG:  Solving for ILambda_35_0, Initial residual = 0.09360792, Final residual = 0.0004264411, No Iterations 1
Radiation solver iter: 6
GAMG:  Solving for ILambda_0_0, Initial residual = 0.09755561, Final residual = 0.0003754695, No Iterations 1
GAMG:  Solving for ILambda_1_0, Initial residual = 0.08491992, Final residual = 0.0004228947, No Iterations 1
GAMG:  Solving for ILambda_2_0, Initial residual = 0.07570907, Final residual = 0.0003981253, No Iterations 1
GAMG:  Solving for ILambda_3_0, Initial residual = 0.07329351, Final residual = 0.000435864, No Iterations 1
GAMG:  Solving for ILambda_4_0, Initial residual = 0.07780726, Final residual = 0.0004349579, No Iterations 1
GAMG:  Solving for ILambda_5_0, Initial residual = 0.08551772, Final residual = 0.0003774784, No Iterations 1
GAMG:  Solving for ILambda_6_0, Initial residual = 0.09858836, Final residual = 0.000360521, No Iterations 1
GAMG:  Solving for ILambda_7_0, Initial residual = 0.1144945, Final residual = 0.0002890317, No Iterations 1
GAMG:  Solving for ILambda_8_0, Initial residual = 0.1482248, Final residual = 0.0002804964, No Iterations 1
GAMG:  Solving for ILambda_9_0, Initial residual = 0.1795941, Final residual = 0.0003153945, No Iterations 1
GAMG:  Solving for ILambda_10_0, Initial residual = 0.1310876, Final residual = 0.000304222, No Iterations 1
GAMG:  Solving for ILambda_11_0, Initial residual = 0.1071945, Final residual = 0.0003650784, No Iterations 1
GAMG:  Solving for ILambda_12_0, Initial residual = 0.06484056, Final residual = 0.0004482179, No Iterations 1
GAMG:  Solving for ILambda_13_0, Initial residual = 0.07886688, Final residual = 0.0003141853, No Iterations 1
GAMG:  Solving for ILambda_14_0, Initial residual = 0.09448607, Final residual = 0.0004210496, No Iterations 1
GAMG:  Solving for ILambda_15_0, Initial residual = 0.09910659, Final residual = 0.0003900001, No Iterations 1
GAMG:  Solving for ILambda_16_0, Initial residual = 0.1081032, Final residual = 0.0004240969, No Iterations 1
GAMG:  Solving for ILambda_17_0, Initial residual = 0.08647803, Final residual = 0.0004755216, No Iterations 1
GAMG:  Solving for ILambda_18_0, Initial residual = 0.07478011, Final residual = 0.0005059618, No Iterations 1
GAMG:  Solving for ILambda_19_0, Initial residual = 0.07724037, Final residual = 0.0003983973, No Iterations 1
GAMG:  Solving for ILambda_20_0, Initial residual = 0.09284372, Final residual = 0.0003413212, No Iterations 1
GAMG:  Solving for ILambda_21_0, Initial residual = 0.0986199, Final residual = 0.0002163569, No Iterations 1
GAMG:  Solving for ILambda_22_0, Initial residual = 0.1083439, Final residual = 0.0002225294, No Iterations 1
GAMG:  Solving for ILambda_23_0, Initial residual = 0.08579244, Final residual = 0.0002896076, No Iterations 1
GAMG:  Solving for ILambda_24_0, Initial residual = 0.09751541, Final residual = 0.0002988095, No Iterations 1
GAMG:  Solving for ILambda_25_0, Initial residual = 0.1134741, Final residual = 0.000280606, No Iterations 1
GAMG:  Solving for ILambda_26_0, Initial residual = 0.1448149, Final residual = 0.0003880532, No Iterations 1
GAMG:  Solving for ILambda_27_0, Initial residual = 0.1760551, Final residual = 0.0005074604, No Iterations 1
GAMG:  Solving for ILambda_28_0, Initial residual = 0.1319566, Final residual = 0.000452527, No Iterations 1
GAMG:  Solving for ILambda_29_0, Initial residual = 0.1085233, Final residual = 0.0005164323, No Iterations 1
GAMG:  Solving for ILambda_30_0, Initial residual = 0.09924913, Final residual = 0.0005145042, No Iterations 1
GAMG:  Solving for ILambda_31_0, Initial residual = 0.0861606, Final residual = 0.0004012916, No Iterations 1
GAMG:  Solving for ILambda_32_0, Initial residual = 0.07582438, Final residual = 0.0002592867, No Iterations 1
GAMG:  Solving for ILambda_33_0, Initial residual = 0.07482073, Final residual = 0.0002814311, No Iterations 1
GAMG:  Solving for ILambda_34_0, Initial residual = 0.07838429, Final residual = 0.0003170903, No Iterations 1
GAMG:  Solving for ILambda_35_0, Initial residual = 0.08601966, Final residual = 0.0003782896, No Iterations 1
Radiation solver iter: 7
GAMG:  Solving for ILambda_0_0, Initial residual = 0.09469704, Final residual = 0.0003403672, No Iterations 1
GAMG:  Solving for ILambda_1_0, Initial residual = 0.08165421, Final residual = 0.0003968036, No Iterations 1
GAMG:  Solving for ILambda_2_0, Initial residual = 0.07023839, Final residual = 0.0003509023, No Iterations 1
GAMG:  Solving for ILambda_3_0, Initial residual = 0.06792555, Final residual = 0.0004160976, No Iterations 1
GAMG:  Solving for ILambda_4_0, Initial residual = 0.07330879, Final residual = 0.0003441075, No Iterations 1
GAMG:  Solving for ILambda_5_0, Initial residual = 0.08235464, Final residual = 0.0003023229, No Iterations 1
GAMG:  Solving for ILambda_6_0, Initial residual = 0.09662802, Final residual = 0.0002919971, No Iterations 1
GAMG:  Solving for ILambda_7_0, Initial residual = 0.1134345, Final residual = 0.0002733558, No Iterations 1
GAMG:  Solving for ILambda_8_0, Initial residual = 0.1491838, Final residual = 0.0002717231, No Iterations 1
GAMG:  Solving for ILambda_9_0, Initial residual = 0.1787842, Final residual = 0.0003402007, No Iterations 1
GAMG:  Solving for ILambda_10_0, Initial residual = 0.1271362, Final residual = 0.0003238943, No Iterations 1
GAMG:  Solving for ILambda_11_0, Initial residual = 0.1025352, Final residual = 0.0003305078, No Iterations 1
GAMG:  Solving for ILambda_12_0, Initial residual = 0.05636573, Final residual = 0.0003914652, No Iterations 1
GAMG:  Solving for ILambda_13_0, Initial residual = 0.07308959, Final residual = 0.0002479572, No Iterations 1
GAMG:  Solving for ILambda_14_0, Initial residual = 0.09132253, Final residual = 0.000386218, No Iterations 1
GAMG:  Solving for ILambda_15_0, Initial residual = 0.09712273, Final residual = 0.0003589444, No Iterations 1
GAMG:  Solving for ILambda_16_0, Initial residual = 0.1068413, Final residual = 0.0003708972, No Iterations 1
GAMG:  Solving for ILambda_17_0, Initial residual = 0.08316729, Final residual = 0.000405612, No Iterations 1
GAMG:  Solving for ILambda_18_0, Initial residual = 0.06891463, Final residual = 0.0004563409, No Iterations 1
GAMG:  Solving for ILambda_19_0, Initial residual = 0.07321375, Final residual = 0.000323052, No Iterations 1
GAMG:  Solving for ILambda_20_0, Initial residual = 0.09128029, Final residual = 0.0002921449, No Iterations 1
GAMG:  Solving for ILambda_21_0, Initial residual = 0.09807403, Final residual = 0.0001704095, No Iterations 1
GAMG:  Solving for ILambda_22_0, Initial residual = 0.1073456, Final residual = 0.0001926422, No Iterations 1
GAMG:  Solving for ILambda_23_0, Initial residual = 0.08232391, Final residual = 0.0002532079, No Iterations 1
GAMG:  Solving for ILambda_24_0, Initial residual = 0.09334805, Final residual = 0.0002820036, No Iterations 1
GAMG:  Solving for ILambda_25_0, Initial residual = 0.1117307, Final residual = 0.0002621646, No Iterations 1
GAMG:  Solving for ILambda_26_0, Initial residual = 0.1468031, Final residual = 0.0003601745, No Iterations 1
GAMG:  Solving for ILambda_27_0, Initial residual = 0.1777683, Final residual = 0.0004872227, No Iterations 1
GAMG:  Solving for ILambda_28_0, Initial residual = 0.1282967, Final residual = 0.0004727695, No Iterations 1
GAMG:  Solving for ILambda_29_0, Initial residual = 0.1034582, Final residual = 0.0004515514, No Iterations 1
GAMG:  Solving for ILambda_30_0, Initial residual = 0.09588068, Final residual = 0.0004436182, No Iterations 1
GAMG:  Solving for ILambda_31_0, Initial residual = 0.0824157, Final residual = 0.0003441009, No Iterations 1
GAMG:  Solving for ILambda_32_0, Initial residual = 0.07057167, Final residual = 0.0002151272, No Iterations 1
GAMG:  Solving for ILambda_33_0, Initial residual = 0.06827107, Final residual = 0.0002445795, No Iterations 1
GAMG:  Solving for ILambda_34_0, Initial residual = 0.07312692, Final residual = 0.0003013613, No Iterations 1
GAMG:  Solving for ILambda_35_0, Initial residual = 0.08167054, Final residual = 0.0003363443, No Iterations 1
Radiation solver iter: 8
GAMG:  Solving for ILambda_0_0, Initial residual = 0.09275264, Final residual = 0.0003196929, No Iterations 1
GAMG:  Solving for ILambda_1_0, Initial residual = 0.07890478, Final residual = 0.0003575768, No Iterations 1
GAMG:  Solving for ILambda_2_0, Initial residual = 0.06603776, Final residual = 0.00033354, No Iterations 1
GAMG:  Solving for ILambda_3_0, Initial residual = 0.06394707, Final residual = 0.0003612831, No Iterations 1
GAMG:  Solving for ILambda_4_0, Initial residual = 0.06964266, Final residual = 0.0002683941, No Iterations 1
GAMG:  Solving for ILambda_5_0, Initial residual = 0.07969212, Final residual = 0.0002484116, No Iterations 1
GAMG:  Solving for ILambda_6_0, Initial residual = 0.09412933, Final residual = 0.0002288212, No Iterations 1
GAMG:  Solving for ILambda_7_0, Initial residual = 0.1140793, Final residual = 0.000257638, No Iterations 1
GAMG:  Solving for ILambda_8_0, Initial residual = 0.1519361, Final residual = 0.0002956013, No Iterations 1
GAMG:  Solving for ILambda_9_0, Initial residual = 0.1830809, Final residual = 0.0003485015, No Iterations 1
GAMG:  Solving for ILambda_10_0, Initial residual = 0.1230784, Final residual = 0.0003557605, No Iterations 1
GAMG:  Solving for ILambda_11_0, Initial residual = 0.09921728, Final residual = 0.0003249754, No Iterations 1
GAMG:  Solving for ILambda_12_0, Initial residual = 0.05024798, Final residual = 0.0003598482, No Iterations 1
GAMG:  Solving for ILambda_13_0, Initial residual = 0.06888762, Final residual = 0.0002185475, No Iterations 1
GAMG:  Solving for ILambda_14_0, Initial residual = 0.08919787, Final residual = 0.0003629022, No Iterations 1
GAMG:  Solving for ILambda_15_0, Initial residual = 0.0967099, Final residual = 0.0003509846, No Iterations 1
GAMG:  Solving for ILambda_16_0, Initial residual = 0.1060896, Final residual = 0.0003192799, No Iterations 1
GAMG:  Solving for ILambda_17_0, Initial residual = 0.08063799, Final residual = 0.0003467088, No Iterations 1
GAMG:  Solving for ILambda_18_0, Initial residual = 0.06491284, Final residual = 0.0003864649, No Iterations 1
GAMG:  Solving for ILambda_19_0, Initial residual = 0.06886763, Final residual = 0.0002780682, No Iterations 1
GAMG:  Solving for ILambda_20_0, Initial residual = 0.08918559, Final residual = 0.0002514281, No Iterations 1
GAMG:  Solving for ILambda_21_0, Initial residual = 0.09749333, Final residual = 0.0001518434, No Iterations 1
GAMG:  Solving for ILambda_22_0, Initial residual = 0.1068931, Final residual = 0.0001824735, No Iterations 1
GAMG:  Solving for ILambda_23_0, Initial residual = 0.0795623, Final residual = 0.0002308527, No Iterations 1
GAMG:  Solving for ILambda_24_0, Initial residual = 0.09130671, Final residual = 0.0002780828, No Iterations 1
GAMG:  Solving for ILambda_25_0, Initial residual = 0.1108078, Final residual = 0.0002573678, No Iterations 1
GAMG:  Solving for ILambda_26_0, Initial residual = 0.1511167, Final residual = 0.0003650753, No Iterations 1
GAMG:  Solving for ILambda_27_0, Initial residual = 0.1831, Final residual = 0.0004747388, No Iterations 1
GAMG:  Solving for ILambda_28_0, Initial residual = 0.1251664, Final residual = 0.0005076497, No Iterations 1
GAMG:  Solving for ILambda_29_0, Initial residual = 0.09915941, Final residual = 0.000420975, No Iterations 1
GAMG:  Solving for ILambda_30_0, Initial residual = 0.09319379, Final residual = 0.0003916073, No Iterations 1
GAMG:  Solving for ILambda_31_0, Initial residual = 0.08005287, Final residual = 0.0003013254, No Iterations 1
GAMG:  Solving for ILambda_32_0, Initial residual = 0.06670415, Final residual = 0.0001973645, No Iterations 1
GAMG:  Solving for ILambda_33_0, Initial residual = 0.06369968, Final residual = 0.000223307, No Iterations 1
GAMG:  Solving for ILambda_34_0, Initial residual = 0.06991642, Final residual = 0.0002986213, No Iterations 1
GAMG:  Solving for ILambda_35_0, Initial residual = 0.07961085, Final residual = 0.000318971, No Iterations 1
Radiation solver iter: 9
GAMG:  Solving for ILambda_0_0, Initial residual = 0.09133915, Final residual = 0.0003074239, No Iterations 1
GAMG:  Solving for ILambda_1_0, Initial residual = 0.077122, Final residual = 0.0003129461, No Iterations 1
GAMG:  Solving for ILambda_2_0, Initial residual = 0.06341305, Final residual = 0.000324897, No Iterations 1
GAMG:  Solving for ILambda_3_0, Initial residual = 0.06014058, Final residual = 0.0003020172, No Iterations 1
GAMG:  Solving for ILambda_4_0, Initial residual = 0.06797209, Final residual = 0.0002406891, No Iterations 1
GAMG:  Solving for ILambda_5_0, Initial residual = 0.07888094, Final residual = 0.0002396506, No Iterations 1
GAMG:  Solving for ILambda_6_0, Initial residual = 0.09356559, Final residual = 0.0002076527, No Iterations 1
GAMG:  Solving for ILambda_7_0, Initial residual = 0.1131522, Final residual = 0.0002330676, No Iterations 1
GAMG:  Solving for ILambda_8_0, Initial residual = 0.157765, Final residual = 0.0003282678, No Iterations 1
GAMG:  Solving for ILambda_9_0, Initial residual = 0.1924185, Final residual = 0.0003361477, No Iterations 1
GAMG:  Solving for ILambda_10_0, Initial residual = 0.1207558, Final residual = 0.0003900724, No Iterations 1
GAMG:  Solving for ILambda_11_0, Initial residual = 0.09444325, Final residual = 0.0003354495, No Iterations 1
GAMG:  Solving for ILambda_12_0, Initial residual = 0.04514019, Final residual = 0.0003470914, No Iterations 1
GAMG:  Solving for ILambda_13_0, Initial residual = 0.06592587, Final residual = 0.0002085765, No Iterations 1
GAMG:  Solving for ILambda_14_0, Initial residual = 0.08865662, Final residual = 0.0003632869, No Iterations 1
GAMG:  Solving for ILambda_15_0, Initial residual = 0.09787457, Final residual = 0.0003454074, No Iterations 1
GAMG:  Solving for ILambda_16_0, Initial residual = 0.1068229, Final residual = 0.0002915023, No Iterations 1
GAMG:  Solving for ILambda_17_0, Initial residual = 0.08014421, Final residual = 0.000314997, No Iterations 1
GAMG:  Solving for ILambda_18_0, Initial residual = 0.06134385, Final residual = 0.0003249753, No Iterations 1
GAMG:  Solving for ILambda_19_0, Initial residual = 0.0660033, Final residual = 0.0002618707, No Iterations 1
GAMG:  Solving for ILambda_20_0, Initial residual = 0.08939822, Final residual = 0.0002474953, No Iterations 1
GAMG:  Solving for ILambda_21_0, Initial residual = 0.09855488, Final residual = 0.0001511085, No Iterations 1
GAMG:  Solving for ILambda_22_0, Initial residual = 0.1080804, Final residual = 0.000190963, No Iterations 1
GAMG:  Solving for ILambda_23_0, Initial residual = 0.07868816, Final residual = 0.0002322318, No Iterations 1
GAMG:  Solving for ILambda_24_0, Initial residual = 0.09004253, Final residual = 0.0002735261, No Iterations 1
GAMG:  Solving for ILambda_25_0, Initial residual = 0.1113178, Final residual = 0.0002662716, No Iterations 1
GAMG:  Solving for ILambda_26_0, Initial residual = 0.1573698, Final residual = 0.000375983, No Iterations 1
GAMG:  Solving for ILambda_27_0, Initial residual = 0.1933712, Final residual = 0.0004366322, No Iterations 1
GAMG:  Solving for ILambda_28_0, Initial residual = 0.1223287, Final residual = 0.000548796, No Iterations 1
GAMG:  Solving for ILambda_29_0, Initial residual = 0.09513912, Final residual = 0.0004213747, No Iterations 1
GAMG:  Solving for ILambda_30_0, Initial residual = 0.09189754, Final residual = 0.0003627372, No Iterations 1
GAMG:  Solving for ILambda_31_0, Initial residual = 0.07866119, Final residual = 0.0002717315, No Iterations 1
GAMG:  Solving for ILambda_32_0, Initial residual = 0.0634854, Final residual = 0.0001863898, No Iterations 1
GAMG:  Solving for ILambda_33_0, Initial residual = 0.06030947, Final residual = 0.0002246546, No Iterations 1
GAMG:  Solving for ILambda_34_0, Initial residual = 0.06778251, Final residual = 0.0002999356, No Iterations 1
GAMG:  Solving for ILambda_35_0, Initial residual = 0.07848879, Final residual = 0.0003029411, No Iterations 1
Min/max T:291.643 307.5203
DICPCG:  Solving for p_rgh, Initial residual = 0.5187857, Final residual = 0.004860385, No Iterations 74
time step continuity errors : sum local = 0.0122773, global = 2.548275e-18, cumulative = 2.548275e-18
Min/max rho:1.130289 1.191823
DILUPBiCGStab:  Solving for epsilon, Initial residual = 0.7410395, Final residual = 0.02577084, No Iterations 1
DILUPBiCGStab:  Solving for k, Initial residual = 1, Final residual = 0.0249101, No Iterations 1

Solving for fluid region building
DILUPBiCGStab:  Solving for Ux, Initial residual = 1, Final residual = 0.01312598, No Iterations 1
DILUPBiCGStab:  Solving for Uy, Initial residual = 1, Final residual = 0.01827076, No Iterations 1
DILUPBiCGStab:  Solving for Uz, Initial residual = 1, Final residual = 0.01428754, No Iterations 1
DILUPBiCGStab:  Solving for h, Initial residual = 1, Final residual = 0.06849802, No Iterations 1
Radiation solver iter: 0
Selecting boundary radiation Model: opaqueReflective
Selecting boundary radiation Model: opaqueReflective
Selecting boundary radiation Model: opaqueDiffusive
GAMG:  Solving for ILambda_0_0, Initial residual = 1, Final residual = 0.007858315, No Iterations 1
GAMG:  Solving for ILambda_1_0, Initial residual = 1, Final residual = 0.008469477, No Iterations 1
GAMG:  Solving for ILambda_2_0, Initial residual = 1, Final residual = 0.009699464, No Iterations 1
GAMG:  Solving for ILambda_3_0, Initial residual = 1, Final residual = 0.01141116, No Iterations 1
GAMG:  Solving for ILambda_4_0, Initial residual = 1, Final residual = 0.01052829, No Iterations 1
GAMG:  Solving for ILambda_5_0, Initial residual = 1, Final residual = 0.009801889, No Iterations 1
GAMG:  Solving for ILambda_6_0, Initial residual = 1, Final residual = 0.009838102, No Iterations 1
GAMG:  Solving for ILambda_7_0, Initial residual = 1, Final residual = 0.009950001, No Iterations 1
GAMG:  Solving for ILambda_8_0, Initial residual = 1, Final residual = 0.009841698, No Iterations 1
GAMG:  Solving for ILambda_9_0, Initial residual = 1, Final residual = 0.009503272, No Iterations 1
GAMG:  Solving for ILambda_10_0, Initial residual = 1, Final residual = 0.008185658, No Iterations 1
GAMG:  Solving for ILambda_11_0, Initial residual = 1, Final residual = 0.007356522, No Iterations 1
GAMG:  Solving for ILambda_12_0, Initial residual = 1, Final residual = 0.006571516, No Iterations 1
GAMG:  Solving for ILambda_13_0, Initial residual = 1, Final residual = 0.008058286, No Iterations 1
GAMG:  Solving for ILambda_14_0, Initial residual = 1, Final residual = 0.01003818, No Iterations 1
GAMG:  Solving for ILambda_15_0, Initial residual = 1, Final residual = 0.01255852, No Iterations 1
GAMG:  Solving for ILambda_16_0, Initial residual = 1, Final residual = 0.01132951, No Iterations 1
GAMG:  Solving for ILambda_17_0, Initial residual = 1, Final residual = 0.009673184, No Iterations 1
GAMG:  Solving for ILambda_18_0, Initial residual = 1, Final residual = 0.009674124, No Iterations 1
GAMG:  Solving for ILambda_19_0, Initial residual = 1, Final residual = 0.01036218, No Iterations 1
GAMG:  Solving for ILambda_20_0, Initial residual = 1, Final residual = 0.01022824, No Iterations 1
GAMG:  Solving for ILambda_21_0, Initial residual = 1, Final residual = 0.0100494, No Iterations 1
GAMG:  Solving for ILambda_22_0, Initial residual = 1, Final residual = 0.008217005, No Iterations 1
GAMG:  Solving for ILambda_23_0, Initial residual = 1, Final residual = 0.006252715, No Iterations 1
GAMG:  Solving for ILambda_24_0, Initial residual = 1, Final residual = 0.003672175, No Iterations 1
GAMG:  Solving for ILambda_25_0, Initial residual = 1, Final residual = 0.00506231, No Iterations 1
GAMG:  Solving for ILambda_26_0, Initial residual = 1, Final residual = 0.006952488, No Iterations 1
GAMG:  Solving for ILambda_27_0, Initial residual = 1, Final residual = 0.01078978, No Iterations 1
GAMG:  Solving for ILambda_28_0, Initial residual = 1, Final residual = 0.008766304, No Iterations 1
GAMG:  Solving for ILambda_29_0, Initial residual = 1, Final residual = 0.007515743, No Iterations 1
GAMG:  Solving for ILambda_30_0, Initial residual = 1, Final residual = 0.007626693, No Iterations 1
GAMG:  Solving for ILambda_31_0, Initial residual = 1, Final residual = 0.007626878, No Iterations 1
GAMG:  Solving for ILambda_32_0, Initial residual = 1, Final residual = 0.005777452, No Iterations 1
GAMG:  Solving for ILambda_33_0, Initial residual = 1, Final residual = 0.00620989, No Iterations 1
GAMG:  Solving for ILambda_34_0, Initial residual = 1, Final residual = 0.004558547, No Iterations 1
GAMG:  Solving for ILambda_35_0, Initial residual = 1, Final residual = 0.002978988, No Iterations 1
GAMG:  Solving for ILambda_36_0, Initial residual = 1, Final residual = 0.006499059, No Iterations 1
GAMG:  Solving for ILambda_37_0, Initial residual = 1, Final residual = 0.00794332, No Iterations 1
GAMG:  Solving for ILambda_38_0, Initial residual = 1, Final residual = 0.009728942, No Iterations 1
GAMG:  Solving for ILambda_39_0, Initial residual = 1, Final residual = 0.01217938, No Iterations 1
GAMG:  Solving for ILambda_40_0, Initial residual = 1, Final residual = 0.01096085, No Iterations 1
GAMG:  Solving for ILambda_41_0, Initial residual = 1, Final residual = 0.009189374, No Iterations 1
GAMG:  Solving for ILambda_42_0, Initial residual = 1, Final residual = 0.008800268, No Iterations 1
GAMG:  Solving for ILambda_43_0, Initial residual = 1, Final residual = 0.00922498, No Iterations 1
GAMG:  Solving for ILambda_44_0, Initial residual = 1, Final residual = 0.009333243, No Iterations 1
GAMG:  Solving for ILambda_45_0, Initial residual = 1, Final residual = 0.009251422, No Iterations 1
GAMG:  Solving for ILambda_46_0, Initial residual = 1, Final residual = 0.007856256, No Iterations 1
GAMG:  Solving for ILambda_47_0, Initial residual = 1, Final residual = 0.006211094, No Iterations 1
GAMG:  Solving for ILambda_48_0, Initial residual = 1, Final residual = 0.007406596, No Iterations 1
GAMG:  Solving for ILambda_49_0, Initial residual = 1, Final residual = 0.00818092, No Iterations 1
GAMG:  Solving for ILambda_50_0, Initial residual = 1, Final residual = 0.009093525, No Iterations 1
GAMG:  Solving for ILambda_51_0, Initial residual = 1, Final residual = 0.01052867, No Iterations 1
GAMG:  Solving for ILambda_52_0, Initial residual = 1, Final residual = 0.00984159, No Iterations 1
GAMG:  Solving for ILambda_53_0, Initial residual = 1, Final residual = 0.008676969, No Iterations 1
GAMG:  Solving for ILambda_54_0, Initial residual = 1, Final residual = 0.008328378, No Iterations 1
GAMG:  Solving for ILambda_55_0, Initial residual = 1, Final residual = 0.008391609, No Iterations 1
GAMG:  Solving for ILambda_56_0, Initial residual = 1, Final residual = 0.008262093, No Iterations 1
GAMG:  Solving for ILambda_57_0, Initial residual = 1, Final residual = 0.008278404, No Iterations 1
GAMG:  Solving for ILambda_58_0, Initial residual = 1, Final residual = 0.007427355, No Iterations 1
GAMG:  Solving for ILambda_59_0, Initial residual = 1, Final residual = 0.006731461, No Iterations 1
Radiation solver iter: 1
GAMG:  Solving for ILambda_0_0, Initial residual = 0.2409122, Final residual = 0.001245409, No Iterations 1
GAMG:  Solving for ILambda_1_0, Initial residual = 0.2440035, Final residual = 0.001386169, No Iterations 1
GAMG:  Solving for ILambda_2_0, Initial residual = 0.2475373, Final residual = 0.00158514, No Iterations 1
GAMG:  Solving for ILambda_3_0, Initial residual = 0.2420779, Final residual = 0.001783986, No Iterations 1
GAMG:  Solving for ILambda_4_0, Initial residual = 0.2408855, Final residual = 0.001627351, No Iterations 1
GAMG:  Solving for ILambda_5_0, Initial residual = 0.2388389, Final residual = 0.001480441, No Iterations 1
GAMG:  Solving for ILambda_6_0, Initial residual = 0.2429926, Final residual = 0.001443993, No Iterations 1
GAMG:  Solving for ILambda_7_0, Initial residual = 0.2453322, Final residual = 0.001586192, No Iterations 1
GAMG:  Solving for ILambda_8_0, Initial residual = 0.2472646, Final residual = 0.001521932, No Iterations 1
GAMG:  Solving for ILambda_9_0, Initial residual = 0.2468818, Final residual = 0.001512772, No Iterations 1
GAMG:  Solving for ILambda_10_0, Initial residual = 0.2495348, Final residual = 0.001368192, No Iterations 1
GAMG:  Solving for ILambda_11_0, Initial residual = 0.2446114, Final residual = 0.001173807, No Iterations 1
GAMG:  Solving for ILambda_12_0, Initial residual = 0.2391741, Final residual = 0.00108644, No Iterations 1
GAMG:  Solving for ILambda_13_0, Initial residual = 0.2316417, Final residual = 0.001369763, No Iterations 1
GAMG:  Solving for ILambda_14_0, Initial residual = 0.2438629, Final residual = 0.001762973, No Iterations 1
GAMG:  Solving for ILambda_15_0, Initial residual = 0.2329092, Final residual = 0.001948347, No Iterations 1
GAMG:  Solving for ILambda_16_0, Initial residual = 0.2333196, Final residual = 0.001767124, No Iterations 1
GAMG:  Solving for ILambda_17_0, Initial residual = 0.2402802, Final residual = 0.001494358, No Iterations 1
GAMG:  Solving for ILambda_18_0, Initial residual = 0.2396355, Final residual = 0.001442488, No Iterations 1
GAMG:  Solving for ILambda_19_0, Initial residual = 0.234082, Final residual = 0.001884634, No Iterations 1
GAMG:  Solving for ILambda_20_0, Initial residual = 0.2510679, Final residual = 0.002015861, No Iterations 1
GAMG:  Solving for ILambda_21_0, Initial residual = 0.2392005, Final residual = 0.001908915, No Iterations 1
GAMG:  Solving for ILambda_22_0, Initial residual = 0.2370338, Final residual = 0.001566601, No Iterations 1
GAMG:  Solving for ILambda_23_0, Initial residual = 0.244633, Final residual = 0.001107395, No Iterations 1
GAMG:  Solving for ILambda_24_0, Initial residual = 0.2579588, Final residual = 0.0004616354, No Iterations 1
GAMG:  Solving for ILambda_25_0, Initial residual = 0.2421331, Final residual = 0.0007010093, No Iterations 1
GAMG:  Solving for ILambda_26_0, Initial residual = 0.2506298, Final residual = 0.001199185, No Iterations 1
GAMG:  Solving for ILambda_27_0, Initial residual = 0.239503, Final residual = 0.0012493, No Iterations 1
GAMG:  Solving for ILambda_28_0, Initial residual = 0.2450405, Final residual = 0.001093785, No Iterations 1
GAMG:  Solving for ILambda_29_0, Initial residual = 0.2598967, Final residual = 0.0009001517, No Iterations 1
GAMG:  Solving for ILambda_30_0, Initial residual = 0.2549798, Final residual = 0.0006806459, No Iterations 1
GAMG:  Solving for ILambda_31_0, Initial residual = 0.2410244, Final residual = 0.001164699, No Iterations 1
GAMG:  Solving for ILambda_32_0, Initial residual = 0.2683161, Final residual = 0.001702883, No Iterations 1
GAMG:  Solving for ILambda_33_0, Initial residual = 0.2437974, Final residual = 0.00111154, No Iterations 1
GAMG:  Solving for ILambda_34_0, Initial residual = 0.2515251, Final residual = 0.0008124269, No Iterations 1
GAMG:  Solving for ILambda_35_0, Initial residual = 0.2627782, Final residual = 0.0005156109, No Iterations 1
GAMG:  Solving for ILambda_36_0, Initial residual = 0.238981, Final residual = 0.001048562, No Iterations 1
GAMG:  Solving for ILambda_37_0, Initial residual = 0.2314841, Final residual = 0.001355661, No Iterations 1
GAMG:  Solving for ILambda_38_0, Initial residual = 0.2438646, Final residual = 0.001739112, No Iterations 1
GAMG:  Solving for ILambda_39_0, Initial residual = 0.2327736, Final residual = 0.001902717, No Iterations 1
GAMG:  Solving for ILambda_40_0, Initial residual = 0.2331603, Final residual = 0.001679271, No Iterations 1
GAMG:  Solving for ILambda_41_0, Initial residual = 0.2400334, Final residual = 0.001398753, No Iterations 1
GAMG:  Solving for ILambda_42_0, Initial residual = 0.2393069, Final residual = 0.001280531, No Iterations 1
GAMG:  Solving for ILambda_43_0, Initial residual = 0.2337926, Final residual = 0.001658108, No Iterations 1
GAMG:  Solving for ILambda_44_0, Initial residual = 0.2507733, Final residual = 0.001809339, No Iterations 1
GAMG:  Solving for ILambda_45_0, Initial residual = 0.2388815, Final residual = 0.001712135, No Iterations 1
GAMG:  Solving for ILambda_46_0, Initial residual = 0.2367994, Final residual = 0.001457989, No Iterations 1
GAMG:  Solving for ILambda_47_0, Initial residual = 0.2444252, Final residual = 0.001073213, No Iterations 1
GAMG:  Solving for ILambda_48_0, Initial residual = 0.2407346, Final residual = 0.001156429, No Iterations 1
GAMG:  Solving for ILambda_49_0, Initial residual = 0.2439095, Final residual = 0.001309963, No Iterations 1
GAMG:  Solving for ILambda_50_0, Initial residual = 0.2475076, Final residual = 0.001465165, No Iterations 1
GAMG:  Solving for ILambda_51_0, Initial residual = 0.2417919, Final residual = 0.001650741, No Iterations 1
GAMG:  Solving for ILambda_52_0, Initial residual = 0.2406373, Final residual = 0.001511881, No Iterations 1
GAMG:  Solving for ILambda_53_0, Initial residual = 0.2386544, Final residual = 0.001359404, No Iterations 1
GAMG:  Solving for ILambda_54_0, Initial residual = 0.2427248, Final residual = 0.0012656, No Iterations 1
GAMG:  Solving for ILambda_55_0, Initial residual = 0.2450863, Final residual = 0.001350656, No Iterations 1
GAMG:  Solving for ILambda_56_0, Initial residual = 0.2469887, Final residual = 0.001269347, No Iterations 1
GAMG:  Solving for ILambda_57_0, Initial residual = 0.2466463, Final residual = 0.001313777, No Iterations 1
GAMG:  Solving for ILambda_58_0, Initial residual = 0.2493088, Final residual = 0.001187963, No Iterations 1
GAMG:  Solving for ILambda_59_0, Initial residual = 0.2444356, Final residual = 0.001072483, No Iterations 1
Radiation solver iter: 2
GAMG:  Solving for ILambda_0_0, Initial residual = 0.1479582, Final residual = 0.000688578, No Iterations 1
GAMG:  Solving for ILambda_1_0, Initial residual = 0.143274, Final residual = 0.0007036114, No Iterations 1
GAMG:  Solving for ILambda_2_0, Initial residual = 0.1468547, Final residual = 0.000945495, No Iterations 1
GAMG:  Solving for ILambda_3_0, Initial residual = 0.1449228, Final residual = 0.0009719953, No Iterations 1
GAMG:  Solving for ILambda_4_0, Initial residual = 0.1426836, Final residual = 0.0008572771, No Iterations 1
GAMG:  Solving for ILambda_5_0, Initial residual = 0.1471571, Final residual = 0.0008847414, No Iterations 1
GAMG:  Solving for ILambda_6_0, Initial residual = 0.1471115, Final residual = 0.0008639327, No Iterations 1
GAMG:  Solving for ILambda_7_0, Initial residual = 0.1426474, Final residual = 0.000874837, No Iterations 1
GAMG:  Solving for ILambda_8_0, Initial residual = 0.1475701, Final residual = 0.001022561, No Iterations 1
GAMG:  Solving for ILambda_9_0, Initial residual = 0.1463043, Final residual = 0.0009544431, No Iterations 1
GAMG:  Solving for ILambda_10_0, Initial residual = 0.1435019, Final residual = 0.0007661119, No Iterations 1
GAMG:  Solving for ILambda_11_0, Initial residual = 0.148685, Final residual = 0.0007035969, No Iterations 1
GAMG:  Solving for ILambda_12_0, Initial residual = 0.1535406, Final residual = 0.0006033567, No Iterations 1
GAMG:  Solving for ILambda_13_0, Initial residual = 0.1419364, Final residual = 0.0006054937, No Iterations 1
GAMG:  Solving for ILambda_14_0, Initial residual = 0.1400362, Final residual = 0.0008768703, No Iterations 1
GAMG:  Solving for ILambda_15_0, Initial residual = 0.1390185, Final residual = 0.0009650767, No Iterations 1
GAMG:  Solving for ILambda_16_0, Initial residual = 0.1413298, Final residual = 0.0008646575, No Iterations 1
GAMG:  Solving for ILambda_17_0, Initial residual = 0.1514192, Final residual = 0.0008785468, No Iterations 1
GAMG:  Solving for ILambda_18_0, Initial residual = 0.1509632, Final residual = 0.0008833286, No Iterations 1
GAMG:  Solving for ILambda_19_0, Initial residual = 0.1400241, Final residual = 0.0007410604, No Iterations 1
GAMG:  Solving for ILambda_20_0, Initial residual = 0.1427788, Final residual = 0.0009177725, No Iterations 1
GAMG:  Solving for ILambda_21_0, Initial residual = 0.1400041, Final residual = 0.0007721205, No Iterations 1
GAMG:  Solving for ILambda_22_0, Initial residual = 0.1414437, Final residual = 0.0005756062, No Iterations 1
GAMG:  Solving for ILambda_23_0, Initial residual = 0.15327, Final residual = 0.0006167001, No Iterations 1
GAMG:  Solving for ILambda_24_0, Initial residual = 0.1760892, Final residual = 0.0005727985, No Iterations 1
GAMG:  Solving for ILambda_25_0, Initial residual = 0.1579974, Final residual = 0.0006394277, No Iterations 1
GAMG:  Solving for ILambda_26_0, Initial residual = 0.1477804, Final residual = 0.0007889373, No Iterations 1
GAMG:  Solving for ILambda_27_0, Initial residual = 0.1488406, Final residual = 0.001150948, No Iterations 1
GAMG:  Solving for ILambda_28_0, Initial residual = 0.1559386, Final residual = 0.001018746, No Iterations 1
GAMG:  Solving for ILambda_29_0, Initial residual = 0.1728107, Final residual = 0.00110546, No Iterations 1
GAMG:  Solving for ILambda_30_0, Initial residual = 0.1721663, Final residual = 0.001152133, No Iterations 1
GAMG:  Solving for ILambda_31_0, Initial residual = 0.1545081, Final residual = 0.0008693722, No Iterations 1
GAMG:  Solving for ILambda_32_0, Initial residual = 0.1522368, Final residual = 0.0008090282, No Iterations 1
GAMG:  Solving for ILambda_33_0, Initial residual = 0.1491495, Final residual = 0.0006011523, No Iterations 1
GAMG:  Solving for ILambda_34_0, Initial residual = 0.1566318, Final residual = 0.0005857349, No Iterations 1
GAMG:  Solving for ILambda_35_0, Initial residual = 0.1741341, Final residual = 0.0005498469, No Iterations 1
GAMG:  Solving for ILambda_36_0, Initial residual = 0.1535617, Final residual = 0.0005721697, No Iterations 1
GAMG:  Solving for ILambda_37_0, Initial residual = 0.1419926, Final residual = 0.0005723317, No Iterations 1
GAMG:  Solving for ILambda_38_0, Initial residual = 0.1402513, Final residual = 0.000852888, No Iterations 1
GAMG:  Solving for ILambda_39_0, Initial residual = 0.1392033, Final residual = 0.0009242544, No Iterations 1
GAMG:  Solving for ILambda_40_0, Initial residual = 0.1414011, Final residual = 0.0008647502, No Iterations 1
GAMG:  Solving for ILambda_41_0, Initial residual = 0.1514264, Final residual = 0.0008312703, No Iterations 1
GAMG:  Solving for ILambda_42_0, Initial residual = 0.150873, Final residual = 0.0008367408, No Iterations 1
GAMG:  Solving for ILambda_43_0, Initial residual = 0.1398781, Final residual = 0.000708332, No Iterations 1
GAMG:  Solving for ILambda_44_0, Initial residual = 0.1426479, Final residual = 0.0008885644, No Iterations 1
GAMG:  Solving for ILambda_45_0, Initial residual = 0.1398964, Final residual = 0.0007308648, No Iterations 1
GAMG:  Solving for ILambda_46_0, Initial residual = 0.1414116, Final residual = 0.0005746329, No Iterations 1
GAMG:  Solving for ILambda_47_0, Initial residual = 0.1532801, Final residual = 0.0005933139, No Iterations 1
GAMG:  Solving for ILambda_48_0, Initial residual = 0.1479951, Final residual = 0.0006373037, No Iterations 1
GAMG:  Solving for ILambda_49_0, Initial residual = 0.1433416, Final residual = 0.0006628595, No Iterations 1
GAMG:  Solving for ILambda_50_0, Initial residual = 0.147046, Final residual = 0.0009081417, No Iterations 1
GAMG:  Solving for ILambda_51_0, Initial residual = 0.1450094, Final residual = 0.0009433676, No Iterations 1
GAMG:  Solving for ILambda_52_0, Initial residual = 0.1427168, Final residual = 0.0008040838, No Iterations 1
GAMG:  Solving for ILambda_53_0, Initial residual = 0.1471663, Final residual = 0.0008123425, No Iterations 1
[...]
GAMG:  Solving for ILambda_2_0, Initial residual = 0.0281262, Final residual = 5.200089e-05, No Iterations 1
GAMG:  Solving for ILambda_3_0, Initial residual = 0.01943589, Final residual = 0.0001892101, No Iterations 1
GAMG:  Solving for ILambda_4_0, Initial residual = 0.01656099, Final residual = 0.0001222636, No Iterations 1
GAMG:  Solving for ILambda_5_0, Initial residual = 0.01406169, Final residual = 3.908223e-05, No Iterations 1
GAMG:  Solving for ILambda_6_0, Initial residual = 0.0111621, Final residual = 1.106729e-05, No Iterations 1
GAMG:  Solving for ILambda_7_0, Initial residual = 0.02729597, Final residual = 2.221523e-05, No Iterations 1
GAMG:  Solving for ILambda_8_0, Initial residual = 0.02255309, Final residual = 9.54794e-06, No Iterations 1
GAMG:  Solving for ILambda_9_0, Initial residual = 0.02253283, Final residual = 8.27109e-06, No Iterations 1
GAMG:  Solving for ILambda_10_0, Initial residual = 0.01400688, Final residual = 2.015434e-05, No Iterations 1
GAMG:  Solving for ILambda_11_0, Initial residual = 0.01215187, Final residual = 2.401075e-05, No Iterations 1
GAMG:  Solving for ILambda_12_0, Initial residual = 0.001944703, Final residual = 4.080379e-06, No Iterations 1
GAMG:  Solving for ILambda_13_0, Initial residual = 0.9952288, Final residual = 0.04003441, No Iterations 1
GAMG:  Solving for ILambda_14_0, Initial residual = 0.9909789, Final residual = 0.08935778, No Iterations 1
GAMG:  Solving for ILambda_15_0, Initial residual = 0.9979432, Final residual = 0.05537627, No Iterations 1
GAMG:  Solving for ILambda_16_0, Initial residual = 0.9984109, Final residual = 0.04258233, No Iterations 1
GAMG:  Solving for ILambda_17_0, Initial residual = 0.9974918, Final residual = 0.03560475, No Iterations 1
GAMG:  Solving for ILambda_18_0, Initial residual = 0.6642529, Final residual = 0.02116823, No Iterations 1
GAMG:  Solving for ILambda_19_0, Initial residual = 0.3325233, Final residual = 0.005450628, No Iterations 1
GAMG:  Solving for ILambda_20_0, Initial residual = 0.01437646, Final residual = 7.553852e-05, No Iterations 1
GAMG:  Solving for ILambda_21_0, Initial residual = 0.283752, Final residual = 0.002921575, No Iterations 1
GAMG:  Solving for ILambda_22_0, Initial residual = 0.2709013, Final residual = 0.002362889, No Iterations 1
GAMG:  Solving for ILambda_23_0, Initial residual = 0.2174267, Final residual = 0.001173035, No Iterations 1
GAMG:  Solving for ILambda_24_0, Initial residual = 0.9999614, Final residual = 0.0009397691, No Iterations 1
GAMG:  Solving for ILambda_25_0, Initial residual = 0.999705, Final residual = 0.004100814, No Iterations 1
GAMG:  Solving for ILambda_26_0, Initial residual = 0.9958609, Final residual = 0.00859722, No Iterations 1
GAMG:  Solving for ILambda_27_0, Initial residual = 0.9966324, Final residual = 0.01456369, No Iterations 1
GAMG:  Solving for ILambda_28_0, Initial residual = 0.9923356, Final residual = 0.0237912, No Iterations 1
GAMG:  Solving for ILambda_29_0, Initial residual = 0.9878923, Final residual = 0.03009606, No Iterations 1
GAMG:  Solving for ILambda_30_0, Initial residual = 0.987408, Final residual = 0.04833608, No Iterations 1
GAMG:  Solving for ILambda_31_0, Initial residual = 0.9822726, Final residual = 0.03936674, No Iterations 1
GAMG:  Solving for ILambda_32_0, Initial residual = 0.9767034, Final residual = 0.01805025, No Iterations 1
GAMG:  Solving for ILambda_33_0, Initial residual = 0.9996609, Final residual = 0.006716252, No Iterations 1
GAMG:  Solving for ILambda_34_0, Initial residual = 0.9998725, Final residual = 0.001852022, No Iterations 1
GAMG:  Solving for ILambda_35_0, Initial residual = 0.9999426, Final residual = 0.0002278646, No Iterations 1
Radiation solver iter: 1
GAMG:  Solving for ILambda_13_0, Initial residual = 0.09436822, Final residual = 0.001699835, No Iterations 1
GAMG:  Solving for ILambda_14_0, Initial residual = 0.07961014, Final residual = 0.003005528, No Iterations 1
GAMG:  Solving for ILambda_15_0, Initial residual = 0.07688496, Final residual = 0.001216239, No Iterations 1
GAMG:  Solving for ILambda_16_0, Initial residual = 0.07513336, Final residual = 0.001168894, No Iterations 1
GAMG:  Solving for ILambda_17_0, Initial residual = 0.08710862, Final residual = 0.001233284, No Iterations 1
GAMG:  Solving for ILambda_18_0, Initial residual = 0.6702277, Final residual = 0.03076252, No Iterations 1
GAMG:  Solving for ILambda_19_0, Initial residual = 0.2754628, Final residual = 0.003456064, No Iterations 1
GAMG:  Solving for ILambda_21_0, Initial residual = 0.4295049, Final residual = 0.005115107, No Iterations 1
GAMG:  Solving for ILambda_22_0, Initial residual = 0.5038512, Final residual = 0.004330315, No Iterations 1
GAMG:  Solving for ILambda_23_0, Initial residual = 0.4262696, Final residual = 0.002877025, No Iterations 1
GAMG:  Solving for ILambda_24_0, Initial residual = 0.09967367, Final residual = 6.633406e-05, No Iterations 1
GAMG:  Solving for ILambda_25_0, Initial residual = 0.07681922, Final residual = 0.0001985456, No Iterations 1
GAMG:  Solving for ILambda_26_0, Initial residual = 0.05703681, Final residual = 0.0003129427, No Iterations 1
GAMG:  Solving for ILambda_27_0, Initial residual = 0.05942138, Final residual = 0.0003346297, No Iterations 1
GAMG:  Solving for ILambda_28_0, Initial residual = 0.07395803, Final residual = 0.0007342578, No Iterations 1
GAMG:  Solving for ILambda_29_0, Initial residual = 0.08048455, Final residual = 0.001052719, No Iterations 1
GAMG:  Solving for ILambda_30_0, Initial residual = 0.08022592, Final residual = 0.001491106, No Iterations 1
GAMG:  Solving for ILambda_31_0, Initial residual = 0.08670411, Final residual = 0.001384437, No Iterations 1
GAMG:  Solving for ILambda_32_0, Initial residual = 0.1107734, Final residual = 0.0009460305, No Iterations 1
GAMG:  Solving for ILambda_33_0, Initial residual = 0.124787, Final residual = 0.000371096, No Iterations 1
GAMG:  Solving for ILambda_34_0, Initial residual = 0.126036, Final residual = 0.0001210401, No Iterations 1
GAMG:  Solving for ILambda_35_0, Initial residual = 0.1183314, Final residual = 1.73643e-05, No Iterations 1
Radiation solver iter: 2
GAMG:  Solving for ILambda_13_0, Initial residual = 0.04400827, Final residual = 0.0005284868, No Iterations 1
GAMG:  Solving for ILambda_14_0, Initial residual = 0.03909999, Final residual = 0.0008109049, No Iterations 1
GAMG:  Solving for ILambda_15_0, Initial residual = 0.03499283, Final residual = 0.0005102113, No Iterations 1
GAMG:  Solving for ILambda_16_0, Initial residual = 0.02946902, Final residual = 0.000690091, No Iterations 1
GAMG:  Solving for ILambda_17_0, Initial residual = 0.0365462, Final residual = 0.0006717346, No Iterations 1
GAMG:  Solving for ILambda_18_0, Initial residual = 0.201783, Final residual = 0.006478704, No Iterations 1
GAMG:  Solving for ILambda_19_0, Initial residual = 0.0756909, Final residual = 0.0008653995, No Iterations 1
GAMG:  Solving for ILambda_21_0, Initial residual = 0.2762202, Final residual = 0.003812512, No Iterations 1
GAMG:  Solving for ILambda_22_0, Initial residual = 0.3005254, Final residual = 0.003130793, No Iterations 1
GAMG:  Solving for ILambda_23_0, Initial residual = 0.2907536, Final residual = 0.002355873, No Iterations 1
GAMG:  Solving for ILambda_24_0, Initial residual = 0.03626664, Final residual = 2.720465e-05, No Iterations 1
GAMG:  Solving for ILambda_25_0, Initial residual = 0.03360641, Final residual = 7.126704e-05, No Iterations 1
GAMG:  Solving for ILambda_26_0, Initial residual = 0.0288118, Final residual = 0.0001087077, No Iterations 1
GAMG:  Solving for ILambda_27_0, Initial residual = 0.03201493, Final residual = 0.0001024788, No Iterations 1
GAMG:  Solving for ILambda_28_0, Initial residual = 0.03934481, Final residual = 0.0003704659, No Iterations 1
GAMG:  Solving for ILambda_29_0, Initial residual = 0.03880111, Final residual = 0.0004532101, No Iterations 1
GAMG:  Solving for ILambda_30_0, Initial residual = 0.03498598, Final residual = 0.0005415369, No Iterations 1
GAMG:  Solving for ILambda_31_0, Initial residual = 0.03722294, Final residual = 0.0003237753, No Iterations 1
GAMG:  Solving for ILambda_32_0, Initial residual = 0.05489759, Final residual = 0.0002640076, No Iterations 1
GAMG:  Solving for ILambda_33_0, Initial residual = 0.06670065, Final residual = 0.0001009003, No Iterations 1
GAMG:  Solving for ILambda_34_0, Initial residual = 0.06360028, Final residual = 3.585663e-05, No Iterations 1
GAMG:  Solving for ILambda_35_0, Initial residual = 0.04943073, Final residual = 7.162395e-06, No Iterations 1
Radiation solver iter: 3
GAMG:  Solving for ILambda_13_0, Initial residual = 0.02776612, Final residual = 0.0001938179, No Iterations 1
GAMG:  Solving for ILambda_14_0, Initial residual = 0.02918316, Final residual = 0.000509578, No Iterations 1
GAMG:  Solving for ILambda_15_0, Initial residual = 0.02578318, Final residual = 0.0003507116, No Iterations 1
GAMG:  Solving for ILambda_16_0, Initial residual = 0.02219728, Final residual = 0.0003979246, No Iterations 1
GAMG:  Solving for ILambda_17_0, Initial residual = 0.02353107, Final residual = 0.0004083335, No Iterations 1
GAMG:  Solving for ILambda_18_0, Initial residual = 0.0903508, Final residual = 0.002583533, No Iterations 1
GAMG:  Solving for ILambda_19_0, Initial residual = 0.04049139, Final residual = 0.0005529346, No Iterations 1
GAMG:  Solving for ILambda_21_0, Initial residual = 0.2034086, Final residual = 0.0028056, No Iterations 1
GAMG:  Solving for ILambda_22_0, Initial residual = 0.2202377, Final residual = 0.002322584, No Iterations 1
GAMG:  Solving for ILambda_23_0, Initial residual = 0.2301412, Final residual = 0.00175896, No Iterations 1
GAMG:  Solving for ILambda_32_0, Initial residual = 0.03092623, Final residual = 0.0001312651, No Iterations 1
GAMG:  Solving for ILambda_33_0, Initial residual = 0.03860606, Final residual = 6.14575e-05, No Iterations 1
GAMG:  Solving for ILambda_34_0, Initial residual = 0.03503229, Final residual = 1.984953e-05, No Iterations 1
GAMG:  Solving for ILambda_35_0, Initial residual = 0.02589401, Final residual = 5.954861e-06, No Iterations 1
Radiation solver iter: 4
GAMG:  Solving for ILambda_13_0, Initial residual = 0.01877536, Final residual = 0.000129714, No Iterations 1
GAMG:  Solving for ILambda_14_0, Initial residual = 0.02410407, Final residual = 0.0004247649, No Iterations 1
GAMG:  Solving for ILambda_15_0, Initial residual = 0.02131061, Final residual = 0.0002600118, No Iterations 1
GAMG:  Solving for ILambda_16_0, Initial residual = 0.01875773, Final residual = 0.0002705166, No Iterations 1
GAMG:  Solving for ILambda_17_0, Initial residual = 0.01806426, Final residual = 0.0002708646, No Iterations 1
GAMG:  Solving for ILambda_18_0, Initial residual = 0.0540659, Final residual = 0.001374894, No Iterations 1
GAMG:  Solving for ILambda_19_0, Initial residual = 0.02470874, Final residual = 0.0003376308, No Iterations 1
GAMG:  Solving for ILambda_21_0, Initial residual = 0.1059639, Final residual = 0.001219181, No Iterations 1
GAMG:  Solving for ILambda_22_0, Initial residual = 0.1019817, Final residual = 0.0009606195, No Iterations 1
GAMG:  Solving for ILambda_23_0, Initial residual = 0.1074011, Final residual = 0.0006627741, No Iterations 1
Radiation solver iter: 5
GAMG:  Solving for ILambda_14_0, Initial residual = 0.02096444, Final residual = 0.0003484156, No Iterations 1
GAMG:  Solving for ILambda_15_0, Initial residual = 0.01912773, Final residual = 0.0002303938, No Iterations 1
GAMG:  Solving for ILambda_18_0, Initial residual = 0.03861986, Final residual = 0.0008621145, No Iterations 1
GAMG:  Solving for ILambda_19_0, Initial residual = 0.01615387, Final residual = 0.0001996811, No Iterations 1
GAMG:  Solving for ILambda_21_0, Initial residual = 0.07433101, Final residual = 0.000693371, No Iterations 1
GAMG:  Solving for ILambda_22_0, Initial residual = 0.0633713, Final residual = 0.0005093117, No Iterations 1
GAMG:  Solving for ILambda_23_0, Initial residual = 0.05843614, Final residual = 0.0002968077, No Iterations 1
Radiation solver iter: 6
GAMG:  Solving for ILambda_14_0, Initial residual = 0.01857755, Final residual = 0.0002835359, No Iterations 1
GAMG:  Solving for ILambda_18_0, Initial residual = 0.02940667, Final residual = 0.0006400086, No Iterations 1
GAMG:  Solving for ILambda_21_0, Initial residual = 0.05961765, Final residual = 0.0005200337, No Iterations 1
GAMG:  Solving for ILambda_22_0, Initial residual = 0.05004646, Final residual = 0.0003926915, No Iterations 1
GAMG:  Solving for ILambda_23_0, Initial residual = 0.0428958, Final residual = 0.0002038882, No Iterations 1
Radiation solver iter: 7
GAMG:  Solving for ILambda_18_0, Initial residual = 0.02409736, Final residual = 0.000520031, No Iterations 1
GAMG:  Solving for ILambda_21_0, Initial residual = 0.03624833, Final residual = 0.0002540293, No Iterations 1
GAMG:  Solving for ILambda_22_0, Initial residual = 0.0311729, Final residual = 0.0002158243, No Iterations 1
GAMG:  Solving for ILambda_23_0, Initial residual = 0.02820371, Final residual = 0.0001352399, No Iterations 1
Radiation solver iter: 8
GAMG:  Solving for ILambda_18_0, Initial residual = 0.0202844, Final residual = 0.0004230956, No Iterations 1
GAMG:  Solving for ILambda_21_0, Initial residual = 0.02466171, Final residual = 0.0001450813, No Iterations 1
GAMG:  Solving for ILambda_22_0, Initial residual = 0.0197313, Final residual = 0.0001077797, No Iterations 1
GAMG:  Solving for ILambda_23_0, Initial residual = 0.01762927, Final residual = 7.728027e-05, No Iterations 1
Radiation solver iter: 9
GAMG:  Solving for ILambda_18_0, Initial residual = 0.01760723, Final residual = 0.000348541, No Iterations 1
GAMG:  Solving for ILambda_21_0, Initial residual = 0.01748675, Final residual = 0.0001167114, No Iterations 1
Min/max T:-59049.56 2746.892
DICPCG:  Solving for p_rgh, Initial residual = 0.001352223, Final residual = 1.331252e-05, No Iterations 32
time step continuity errors : sum local = 1.470732e-07, global = -1.90118e-08, cumulative = 0.0001792073
Min/max rho:0.2000011 1.399769
DILUPBiCGStab:  Solving for epsilon, Initial residual = 0.004157802, Final residual = 7.44982e-05, No Iterations 1
DILUPBiCGStab:  Solving for k, Initial residual = 0.003379248, Final residual = 6.227146e-05, No Iterations 1

Solving for solid region floor
DICPCG:  Solving for h, Initial residual = 0.9980696, Final residual = 0.08840845, No Iterations 1
Min/max T:-8713579 4.415986e+08
ExecutionTime = 5129.19 s  ClockTime = 6014 s

Time = 321


Solving for fluid region atrium
DILUPBiCGStab:  Solving for Ux, Initial residual = 0.007010787, Final residual = 0.0001769732, No Iterations 1
DILUPBiCGStab:  Solving for Uy, Initial residual = 0.01523606, Final residual = 0.0003751107, No Iterations 1
DILUPBiCGStab:  Solving for Uz, Initial residual = 0.008787518, Final residual = 0.0002083867, No Iterations 1
DILUPBiCGStab:  Solving for h, Initial residual = 0.0207312, Final residual = 0.00186661, No Iterations 1
Min/max T:245.6857 351.3576
DICPCG:  Solving for p_rgh, Initial residual = 0.05809394, Final residual = 0.0005731843, No Iterations 69
time step continuity errors : sum local = 3.372903e-05, global = 1.621229e-19, cumulative = 0.0001792073
Min/max rho:0.9956766 1.423048
DILUPBiCGStab:  Solving for epsilon, Initial residual = 0.04457469, Final residual = 0.001799631, No Iterations 1
DILUPBiCGStab:  Solving for k, Initial residual = 0.02288043, Final residual = 0.0008150056, No Iterations 1

Solving for fluid region building
DILUPBiCGStab:  Solving for Ux, Initial residual = 0.01077697, Final residual = 0.0002664439, No Iterations 1
DILUPBiCGStab:  Solving for Uy, Initial residual = 0.02506899, Final residual = 0.0006596865, No Iterations 1
DILUPBiCGStab:  Solving for Uz, Initial residual = 0.01449706, Final residual = 0.0003636485, No Iterations 1
DILUPBiCGStab:  Solving for h, Initial residual = 0.9996136, Final residual = 0.02522587, No Iterations 1
Min/max T:-4.276115e+11 1.7978e+07
DICPCG:  Solving for p_rgh, Initial residual = 0.08231603, Final residual = 0.0007973896, No Iterations 13
time step continuity errors : sum local = 5.854853e-05, global = -1.112706e-19, cumulative = 0.0001792073
Min/max rho:0.2 2
DILUPBiCGStab:  Solving for epsilon, Initial residual = 0.008739748, Final residual = 0.0001223919, No Iterations 1
DILUPBiCGStab:  Solving for k, Initial residual = 0.01431299, Final residual = 0.0002430744, No Iterations 1

Solving for fluid region domain1
DILUPBiCGStab:  Solving for Ux, Initial residual = 0.001618514, Final residual = 4.300126e-06, No Iterations 1
DILUPBiCGStab:  Solving for Uy, Initial residual = 0.001561108, Final residual = 2.06164e-06, No Iterations 1
DILUPBiCGStab:  Solving for Uz, Initial residual = 0.002259536, Final residual = 3.072448e-06, No Iterations 1
DILUPBiCGStab:  Solving for h, Initial residual = 0.6997865, Final residual = 0.0367726, No Iterations 1
limitTemperature limitT Lower limited 108 (0.01%) of cells, with min limit 270
limitTemperature limitT Upper limited 104 (0.01%) of cells, with max limit 460
limitTemperature limitT Unlimited Tmin 283.5984
limitTemperature limitT Unlimited Tmax 295.7147
Min/max T:-3.833841e+11 5.524966e+08
DICPCG:  Solving for p_rgh, Initial residual = 0.001633905, Final residual = 1.593863e-05, No Iterations 31
time step continuity errors : sum local = 1.761924e-07, global = -3.055703e-08, cumulative = 0.0001791767
Min/max rho:0.2000003 1.755961
DILUPBiCGStab:  Solving for epsilon, Initial residual = 0.004162763, Final residual = 7.500978e-05, No Iterations 1
DILUPBiCGStab:  Solving for k, Initial residual = 0.003385562, Final residual = 6.189208e-05, No Iterations 1

Solving for solid region floor
DICPCG:  Solving for h, Initial residual = 0.1172476, Final residual = 0.01105792, No Iterations 1


--> FOAM FATAL ERROR: (openfoam-2212)
Negative initial temperature T0: -2.243677

    From Foam::scalar Foam::species::thermo<Thermo, Type>::T(Foam::scalar, Foam::scalar, Foam::scalar, Foam::scalar (Foam::species::thermo<Thermo, Type>::*)(Foam::scalar, Foam::scalar) const, Foam::scalar (Foam::species::thermo<Thermo, Type>::*)(Foam::scalar, Foam::scalar) const, Foam::scalar (Foam::species::thermo<Thermo, Type>::*)(Foam::scalar) const) const [with Thermo = Foam::hConstThermo<Foam::rhoConst<Foam::specie> >; Type = Foam::sensibleEnthalpy; Foam::scalar = double; Foam::species::thermo<Thermo, Type> = Foam::species::thermo<Foam::hConstThermo<Foam::rhoConst<Foam::specie> >, Foam::sensibleEnthalpy>]
    in file /home/sumeifang/OpenFOAM/OpenFOAM-v2212/src/thermophysicalModels/specie/lnInclude/thermoI.H at line 57.

FOAM aborting

#0  Foam::error::printStack(Foam::Ostream&) in ~/OpenFOAM/OpenFOAM-v2212/platforms/linux64GccDPInt32Opt/lib/libOpenFOAM.so
#1  Foam::error::simpleExit(int, bool) in ~/OpenFOAM/OpenFOAM-v2212/platforms/linux64GccDPInt32Opt/lib/libOpenFOAM.so
#2  Foam::error::exiting(int, bool) in ~/OpenFOAM/OpenFOAM-v2212/platforms/linux64GccDPInt32Opt/lib/libOpenFOAM.so
#3  Foam::heSolidThermo<Foam::solidThermo, Foam::pureMixture<Foam::constIsoSolidTransport<Foam::species::thermo<Foam::hConstThermo<Foam::rhoConst<Foam::specie> >, Foam::sensibleEnthalpy> > > >::calculate() in ~/OpenFOAM/OpenFOAM-v2212/platforms/linux64GccDPInt32Opt/lib/libsolidThermo.so
#4  Foam::heSolidThermo<Foam::solidThermo, Foam::pureMixture<Foam::constIsoSolidTransport<Foam::species::thermo<Foam::hConstThermo<Foam::rhoConst<Foam::specie> >, Foam::sensibleEnthalpy> > > >::correct() in ~/OpenFOAM/OpenFOAM-v2212/platforms/linux64GccDPInt32Opt/lib/libsolidThermo.so
#5  ? in ~/OpenFOAM/OpenFOAM-v2212/platforms/linux64GccDPInt32Opt/bin/chtMultiRegionSimpleFoam
#6  __libc_start_main in /lib/x86_64-linux-gnu/libc.so.6
#7  ? in ~/OpenFOAM/OpenFOAM-v2212/platforms/linux64GccDPInt32Opt/bin/chtMultiRegionSimpleFoam
Aborted (core dumped)
